<?xml version="1.0" encoding="UTF-8"?>

<!-- generated on 2022-12-11 11:09:25 by Eclipse SUMO netconvert Version 1.12.0
<configuration xmlns:xsi="http://www.w3.org/2001/XMLSchema-instance" xsi:noNamespaceSchemaLocation="http://sumo.dlr.de/xsd/netconvertConfiguration.xsd">

    <input>
        <node-files value="./44network/cross.nod.xml"/>
        <edge-files value="./44network/cross.edg.xml"/>
        <connection-files value="./44network/cross.con.xml"/>
    </input>

    <output>
        <output-file value="./44network/cross.net.xml"/>
    </output>

    <report>
        <aggregate-warnings value="5"/>
    </report>

</configuration>
-->

<net version="1.9" junctionCornerDetail="5" limitTurnSpeed="5.50" xmlns:xsi="http://www.w3.org/2001/XMLSchema-instance" xsi:noNamespaceSchemaLocation="http://sumo.dlr.de/xsd/net_file.xsd">

    <location netOffset="1000.00,4000.00" convBoundary="0.00,0.00,5000.00,5000.00" origBoundary="-1000.00,-4000.00,4000.00,1000.00" projParameter="!"/>

    <edge id=":11_0" function="internal">
        <lane id=":11_0_0" index="0" speed="15.00" length="14.40" shape="998.40,4007.20 998.40,3992.80"/>
    </edge>
    <edge id=":11_1" function="internal">
        <lane id=":11_1_0" index="0" speed="15.00" length="14.40" shape="1007.20,4001.60 992.80,4001.60"/>
    </edge>
    <edge id=":11_2" function="internal">
        <lane id=":11_2_0" index="0" speed="15.00" length="14.40" shape="1001.60,3992.80 1001.60,4007.20"/>
    </edge>
    <edge id=":11_3" function="internal">
        <lane id=":11_3_0" index="0" speed="15.00" length="14.40" shape="992.80,3998.40 1007.20,3998.40"/>
    </edge>
    <edge id=":12_0" function="internal">
        <lane id=":12_0_0" index="0" speed="15.00" length="14.40" shape="1998.40,4007.20 1998.40,3992.80"/>
    </edge>
    <edge id=":12_1" function="internal">
        <lane id=":12_1_0" index="0" speed="15.00" length="14.40" shape="2007.20,4001.60 1992.80,4001.60"/>
    </edge>
    <edge id=":12_2" function="internal">
        <lane id=":12_2_0" index="0" speed="15.00" length="14.40" shape="2001.60,3992.80 2001.60,4007.20"/>
    </edge>
    <edge id=":12_3" function="internal">
        <lane id=":12_3_0" index="0" speed="15.00" length="14.40" shape="1992.80,3998.40 2007.20,3998.40"/>
    </edge>
    <edge id=":13_0" function="internal">
        <lane id=":13_0_0" index="0" speed="15.00" length="14.40" shape="2998.40,4007.20 2998.40,3992.80"/>
    </edge>
    <edge id=":13_1" function="internal">
        <lane id=":13_1_0" index="0" speed="15.00" length="14.40" shape="3007.20,4001.60 2992.80,4001.60"/>
    </edge>
    <edge id=":13_2" function="internal">
        <lane id=":13_2_0" index="0" speed="15.00" length="14.40" shape="3001.60,3992.80 3001.60,4007.20"/>
    </edge>
    <edge id=":13_3" function="internal">
        <lane id=":13_3_0" index="0" speed="15.00" length="14.40" shape="2992.80,3998.40 3007.20,3998.40"/>
    </edge>
    <edge id=":14_0" function="internal">
        <lane id=":14_0_0" index="0" speed="15.00" length="14.40" shape="3998.40,4007.20 3998.40,3992.80"/>
    </edge>
    <edge id=":14_1" function="internal">
        <lane id=":14_1_0" index="0" speed="15.00" length="14.40" shape="4007.20,4001.60 3992.80,4001.60"/>
    </edge>
    <edge id=":14_2" function="internal">
        <lane id=":14_2_0" index="0" speed="15.00" length="14.40" shape="4001.60,3992.80 4001.60,4007.20"/>
    </edge>
    <edge id=":14_3" function="internal">
        <lane id=":14_3_0" index="0" speed="15.00" length="14.40" shape="3992.80,3998.40 4007.20,3998.40"/>
    </edge>
    <edge id=":21_0" function="internal">
        <lane id=":21_0_0" index="0" speed="15.00" length="14.40" shape="998.40,3007.20 998.40,2992.80"/>
    </edge>
    <edge id=":21_1" function="internal">
        <lane id=":21_1_0" index="0" speed="15.00" length="14.40" shape="1007.20,3001.60 992.80,3001.60"/>
    </edge>
    <edge id=":21_2" function="internal">
        <lane id=":21_2_0" index="0" speed="15.00" length="14.40" shape="1001.60,2992.80 1001.60,3007.20"/>
    </edge>
    <edge id=":21_3" function="internal">
        <lane id=":21_3_0" index="0" speed="15.00" length="14.40" shape="992.80,2998.40 1007.20,2998.40"/>
    </edge>
    <edge id=":22_0" function="internal">
        <lane id=":22_0_0" index="0" speed="15.00" length="14.40" shape="1998.40,3007.20 1998.40,2992.80"/>
    </edge>
    <edge id=":22_1" function="internal">
        <lane id=":22_1_0" index="0" speed="15.00" length="14.40" shape="2007.20,3001.60 1992.80,3001.60"/>
    </edge>
    <edge id=":22_2" function="internal">
        <lane id=":22_2_0" index="0" speed="15.00" length="14.40" shape="2001.60,2992.80 2001.60,3007.20"/>
    </edge>
    <edge id=":22_3" function="internal">
        <lane id=":22_3_0" index="0" speed="15.00" length="14.40" shape="1992.80,2998.40 2007.20,2998.40"/>
    </edge>
    <edge id=":23_0" function="internal">
        <lane id=":23_0_0" index="0" speed="15.00" length="14.40" shape="2998.40,3007.20 2998.40,2992.80"/>
    </edge>
    <edge id=":23_1" function="internal">
        <lane id=":23_1_0" index="0" speed="15.00" length="14.40" shape="3007.20,3001.60 2992.80,3001.60"/>
    </edge>
    <edge id=":23_2" function="internal">
        <lane id=":23_2_0" index="0" speed="15.00" length="14.40" shape="3001.60,2992.80 3001.60,3007.20"/>
    </edge>
    <edge id=":23_3" function="internal">
        <lane id=":23_3_0" index="0" speed="15.00" length="14.40" shape="2992.80,2998.40 3007.20,2998.40"/>
    </edge>
    <edge id=":24_0" function="internal">
        <lane id=":24_0_0" index="0" speed="15.00" length="14.40" shape="3998.40,3007.20 3998.40,2992.80"/>
    </edge>
    <edge id=":24_1" function="internal">
        <lane id=":24_1_0" index="0" speed="15.00" length="14.40" shape="4007.20,3001.60 3992.80,3001.60"/>
    </edge>
    <edge id=":24_2" function="internal">
        <lane id=":24_2_0" index="0" speed="15.00" length="14.40" shape="4001.60,2992.80 4001.60,3007.20"/>
    </edge>
    <edge id=":24_3" function="internal">
        <lane id=":24_3_0" index="0" speed="15.00" length="14.40" shape="3992.80,2998.40 4007.20,2998.40"/>
    </edge>
    <edge id=":31_0" function="internal">
        <lane id=":31_0_0" index="0" speed="15.00" length="14.40" shape="998.40,2007.20 998.40,1992.80"/>
    </edge>
    <edge id=":31_1" function="internal">
        <lane id=":31_1_0" index="0" speed="15.00" length="14.40" shape="1007.20,2001.60 992.80,2001.60"/>
    </edge>
    <edge id=":31_2" function="internal">
        <lane id=":31_2_0" index="0" speed="15.00" length="14.40" shape="1001.60,1992.80 1001.60,2007.20"/>
    </edge>
    <edge id=":31_3" function="internal">
        <lane id=":31_3_0" index="0" speed="15.00" length="14.40" shape="992.80,1998.40 1007.20,1998.40"/>
    </edge>
    <edge id=":32_0" function="internal">
        <lane id=":32_0_0" index="0" speed="15.00" length="14.40" shape="1998.40,2007.20 1998.40,1992.80"/>
    </edge>
    <edge id=":32_1" function="internal">
        <lane id=":32_1_0" index="0" speed="15.00" length="14.40" shape="2007.20,2001.60 1992.80,2001.60"/>
    </edge>
    <edge id=":32_2" function="internal">
        <lane id=":32_2_0" index="0" speed="15.00" length="14.40" shape="2001.60,1992.80 2001.60,2007.20"/>
    </edge>
    <edge id=":32_3" function="internal">
        <lane id=":32_3_0" index="0" speed="15.00" length="14.40" shape="1992.80,1998.40 2007.20,1998.40"/>
    </edge>
    <edge id=":33_0" function="internal">
        <lane id=":33_0_0" index="0" speed="15.00" length="14.40" shape="2998.40,2007.20 2998.40,1992.80"/>
    </edge>
    <edge id=":33_1" function="internal">
        <lane id=":33_1_0" index="0" speed="15.00" length="14.40" shape="3007.20,2001.60 2992.80,2001.60"/>
    </edge>
    <edge id=":33_2" function="internal">
        <lane id=":33_2_0" index="0" speed="15.00" length="14.40" shape="3001.60,1992.80 3001.60,2007.20"/>
    </edge>
    <edge id=":33_3" function="internal">
        <lane id=":33_3_0" index="0" speed="15.00" length="14.40" shape="2992.80,1998.40 3007.20,1998.40"/>
    </edge>
    <edge id=":34_0" function="internal">
        <lane id=":34_0_0" index="0" speed="15.00" length="14.40" shape="3998.40,2007.20 3998.40,1992.80"/>
    </edge>
    <edge id=":34_1" function="internal">
        <lane id=":34_1_0" index="0" speed="15.00" length="14.40" shape="4007.20,2001.60 3992.80,2001.60"/>
    </edge>
    <edge id=":34_2" function="internal">
        <lane id=":34_2_0" index="0" speed="15.00" length="14.40" shape="4001.60,1992.80 4001.60,2007.20"/>
    </edge>
    <edge id=":34_3" function="internal">
        <lane id=":34_3_0" index="0" speed="15.00" length="14.40" shape="3992.80,1998.40 4007.20,1998.40"/>
    </edge>
    <edge id=":41_0" function="internal">
        <lane id=":41_0_0" index="0" speed="15.00" length="14.40" shape="998.40,1007.20 998.40,992.80"/>
    </edge>
    <edge id=":41_1" function="internal">
        <lane id=":41_1_0" index="0" speed="15.00" length="14.40" shape="1007.20,1001.60 992.80,1001.60"/>
    </edge>
    <edge id=":41_2" function="internal">
        <lane id=":41_2_0" index="0" speed="15.00" length="14.40" shape="1001.60,992.80 1001.60,1007.20"/>
    </edge>
    <edge id=":41_3" function="internal">
        <lane id=":41_3_0" index="0" speed="15.00" length="14.40" shape="992.80,998.40 1007.20,998.40"/>
    </edge>
    <edge id=":42_0" function="internal">
        <lane id=":42_0_0" index="0" speed="15.00" length="14.40" shape="1998.40,1007.20 1998.40,992.80"/>
    </edge>
    <edge id=":42_1" function="internal">
        <lane id=":42_1_0" index="0" speed="15.00" length="14.40" shape="2007.20,1001.60 1992.80,1001.60"/>
    </edge>
    <edge id=":42_2" function="internal">
        <lane id=":42_2_0" index="0" speed="15.00" length="14.40" shape="2001.60,992.80 2001.60,1007.20"/>
    </edge>
    <edge id=":42_3" function="internal">
        <lane id=":42_3_0" index="0" speed="15.00" length="14.40" shape="1992.80,998.40 2007.20,998.40"/>
    </edge>
    <edge id=":43_0" function="internal">
        <lane id=":43_0_0" index="0" speed="15.00" length="14.40" shape="2998.40,1007.20 2998.40,992.80"/>
    </edge>
    <edge id=":43_1" function="internal">
        <lane id=":43_1_0" index="0" speed="15.00" length="14.40" shape="3007.20,1001.60 2992.80,1001.60"/>
    </edge>
    <edge id=":43_2" function="internal">
        <lane id=":43_2_0" index="0" speed="15.00" length="14.40" shape="3001.60,992.80 3001.60,1007.20"/>
    </edge>
    <edge id=":43_3" function="internal">
        <lane id=":43_3_0" index="0" speed="15.00" length="14.40" shape="2992.80,998.40 3007.20,998.40"/>
    </edge>
    <edge id=":44_0" function="internal">
        <lane id=":44_0_0" index="0" speed="15.00" length="14.40" shape="3998.40,1007.20 3998.40,992.80"/>
    </edge>
    <edge id=":44_1" function="internal">
        <lane id=":44_1_0" index="0" speed="15.00" length="14.40" shape="4007.20,1001.60 3992.80,1001.60"/>
    </edge>
    <edge id=":44_2" function="internal">
        <lane id=":44_2_0" index="0" speed="15.00" length="14.40" shape="4001.60,992.80 4001.60,1007.20"/>
    </edge>
    <edge id=":44_3" function="internal">
        <lane id=":44_3_0" index="0" speed="15.00" length="14.40" shape="3992.80,998.40 4007.20,998.40"/>
    </edge>
    <edge id=":d1_0" function="internal">
        <lane id=":d1_0_0" index="0" speed="3.65" length="4.67" shape="998.40,0.00 999.20,-1.20 1000.00,-1.60 1000.80,-1.20 1001.60,0.00"/>
    </edge>
    <edge id=":d2_0" function="internal">
        <lane id=":d2_0_0" index="0" speed="3.65" length="4.67" shape="1998.40,0.00 1999.20,-1.20 2000.00,-1.60 2000.80,-1.20 2001.60,0.00"/>
    </edge>
    <edge id=":d3_0" function="internal">
        <lane id=":d3_0_0" index="0" speed="3.65" length="4.67" shape="2998.40,0.00 2999.20,-1.20 3000.00,-1.60 3000.80,-1.20 3001.60,0.00"/>
    </edge>
    <edge id=":d4_0" function="internal">
        <lane id=":d4_0_0" index="0" speed="3.65" length="4.67" shape="3998.40,0.00 3999.20,-1.20 4000.00,-1.60 4000.80,-1.20 4001.60,0.00"/>
    </edge>
    <edge id=":l1_0" function="internal">
        <lane id=":l1_0_0" index="0" speed="3.65" length="4.67" shape="0.00,4001.60 -1.20,4000.80 -1.60,4000.00 -1.20,3999.20 0.00,3998.40"/>
    </edge>
    <edge id=":l2_0" function="internal">
        <lane id=":l2_0_0" index="0" speed="3.65" length="4.67" shape="0.00,3001.60 -1.20,3000.80 -1.60,3000.00 -1.20,2999.20 0.00,2998.40"/>
    </edge>
    <edge id=":l3_0" function="internal">
        <lane id=":l3_0_0" index="0" speed="3.65" length="4.67" shape="0.00,2001.60 -1.20,2000.80 -1.60,2000.00 -1.20,1999.20 0.00,1998.40"/>
    </edge>
    <edge id=":l4_0" function="internal">
        <lane id=":l4_0_0" index="0" speed="3.65" length="4.67" shape="0.00,1001.60 -1.20,1000.80 -1.60,1000.00 -1.20,999.20 0.00,998.40"/>
    </edge>
    <edge id=":r1_0" function="internal">
        <lane id=":r1_0_0" index="0" speed="3.65" length="4.67" shape="5000.00,3998.40 5001.20,3999.20 5001.60,4000.00 5001.20,4000.80 5000.00,4001.60"/>
    </edge>
    <edge id=":r2_0" function="internal">
        <lane id=":r2_0_0" index="0" speed="3.65" length="4.67" shape="5000.00,2998.40 5001.20,2999.20 5001.60,3000.00 5001.20,3000.80 5000.00,3001.60"/>
    </edge>
    <edge id=":r3_0" function="internal">
        <lane id=":r3_0_0" index="0" speed="3.65" length="4.67" shape="5000.00,1998.40 5001.20,1999.20 5001.60,2000.00 5001.20,2000.80 5000.00,2001.60"/>
    </edge>
    <edge id=":r4_0" function="internal">
        <lane id=":r4_0_0" index="0" speed="3.65" length="4.67" shape="5000.00,998.40 5001.20,999.20 5001.60,1000.00 5001.20,1000.80 5000.00,1001.60"/>
    </edge>
    <edge id=":u1_0" function="internal">
        <lane id=":u1_0_0" index="0" speed="3.65" length="4.67" shape="1001.60,5000.00 1000.80,5001.20 1000.00,5001.60 999.20,5001.20 998.40,5000.00"/>
    </edge>
    <edge id=":u2_0" function="internal">
        <lane id=":u2_0_0" index="0" speed="3.65" length="4.67" shape="2001.60,5000.00 2000.80,5001.20 2000.00,5001.60 1999.20,5001.20 1998.40,5000.00"/>
    </edge>
    <edge id=":u3_0" function="internal">
        <lane id=":u3_0_0" index="0" speed="3.65" length="4.67" shape="3001.60,5000.00 3000.80,5001.20 3000.00,5001.60 2999.20,5001.20 2998.40,5000.00"/>
    </edge>
    <edge id=":u4_0" function="internal">
        <lane id=":u4_0_0" index="0" speed="3.65" length="4.67" shape="4001.60,5000.00 4000.80,5001.20 4000.00,5001.60 3999.20,5001.20 3998.40,5000.00"/>
    </edge>

    <edge id="d11" from="u1" to="11" priority="1">
        <lane id="d11_0" index="0" speed="15.00" length="992.80" shape="998.40,5000.00 998.40,4007.20"/>
    </edge>
    <edge id="d12" from="u2" to="12" priority="1">
        <lane id="d12_0" index="0" speed="15.00" length="992.80" shape="1998.40,5000.00 1998.40,4007.20"/>
    </edge>
    <edge id="d13" from="u3" to="13" priority="1">
        <lane id="d13_0" index="0" speed="15.00" length="992.80" shape="2998.40,5000.00 2998.40,4007.20"/>
    </edge>
    <edge id="d14" from="u4" to="14" priority="1">
        <lane id="d14_0" index="0" speed="15.00" length="992.80" shape="3998.40,5000.00 3998.40,4007.20"/>
    </edge>
    <edge id="d21" from="11" to="21" priority="1">
        <lane id="d21_0" index="0" speed="15.00" length="985.60" shape="998.40,3992.80 998.40,3007.20"/>
    </edge>
    <edge id="d22" from="12" to="22" priority="1">
        <lane id="d22_0" index="0" speed="15.00" length="985.60" shape="1998.40,3992.80 1998.40,3007.20"/>
    </edge>
    <edge id="d23" from="13" to="23" priority="1">
        <lane id="d23_0" index="0" speed="15.00" length="985.60" shape="2998.40,3992.80 2998.40,3007.20"/>
    </edge>
    <edge id="d24" from="14" to="24" priority="1">
        <lane id="d24_0" index="0" speed="15.00" length="985.60" shape="3998.40,3992.80 3998.40,3007.20"/>
    </edge>
    <edge id="d31" from="21" to="31" priority="1">
        <lane id="d31_0" index="0" speed="15.00" length="985.60" shape="998.40,2992.80 998.40,2007.20"/>
    </edge>
    <edge id="d32" from="22" to="32" priority="1">
        <lane id="d32_0" index="0" speed="15.00" length="985.60" shape="1998.40,2992.80 1998.40,2007.20"/>
    </edge>
    <edge id="d33" from="23" to="33" priority="1">
        <lane id="d33_0" index="0" speed="15.00" length="985.60" shape="2998.40,2992.80 2998.40,2007.20"/>
    </edge>
    <edge id="d34" from="24" to="34" priority="1">
        <lane id="d34_0" index="0" speed="15.00" length="985.60" shape="3998.40,2992.80 3998.40,2007.20"/>
    </edge>
    <edge id="d41" from="31" to="41" priority="1">
        <lane id="d41_0" index="0" speed="15.00" length="985.60" shape="998.40,1992.80 998.40,1007.20"/>
    </edge>
    <edge id="d42" from="32" to="42" priority="1">
        <lane id="d42_0" index="0" speed="15.00" length="985.60" shape="1998.40,1992.80 1998.40,1007.20"/>
    </edge>
    <edge id="d43" from="33" to="43" priority="1">
        <lane id="d43_0" index="0" speed="15.00" length="985.60" shape="2998.40,1992.80 2998.40,1007.20"/>
    </edge>
    <edge id="d44" from="34" to="44" priority="1">
        <lane id="d44_0" index="0" speed="15.00" length="985.60" shape="3998.40,1992.80 3998.40,1007.20"/>
    </edge>
    <edge id="d51" from="41" to="d1" priority="1">
        <lane id="d51_0" index="0" speed="15.00" length="992.80" shape="998.40,992.80 998.40,0.00"/>
    </edge>
    <edge id="d52" from="42" to="d2" priority="1">
        <lane id="d52_0" index="0" speed="15.00" length="992.80" shape="1998.40,992.80 1998.40,0.00"/>
    </edge>
    <edge id="d53" from="43" to="d3" priority="1">
        <lane id="d53_0" index="0" speed="15.00" length="992.80" shape="2998.40,992.80 2998.40,0.00"/>
    </edge>
    <edge id="d54" from="44" to="d4" priority="1">
        <lane id="d54_0" index="0" speed="15.00" length="992.80" shape="3998.40,992.80 3998.40,0.00"/>
    </edge>
    <edge id="l10" from="11" to="l1" priority="1">
        <lane id="l10_0" index="0" speed="15.00" length="992.80" shape="992.80,4001.60 0.00,4001.60"/>
    </edge>
    <edge id="l11" from="12" to="11" priority="1">
        <lane id="l11_0" index="0" speed="15.00" length="985.60" shape="1992.80,4001.60 1007.20,4001.60"/>
    </edge>
    <edge id="l12" from="13" to="12" priority="1">
        <lane id="l12_0" index="0" speed="15.00" length="985.60" shape="2992.80,4001.60 2007.20,4001.60"/>
    </edge>
    <edge id="l13" from="14" to="13" priority="1">
        <lane id="l13_0" index="0" speed="15.00" length="985.60" shape="3992.80,4001.60 3007.20,4001.60"/>
    </edge>
    <edge id="l14" from="r1" to="14" priority="1">
        <lane id="l14_0" index="0" speed="15.00" length="992.80" shape="5000.00,4001.60 4007.20,4001.60"/>
    </edge>
    <edge id="l20" from="21" to="l2" priority="1">
        <lane id="l20_0" index="0" speed="15.00" length="992.80" shape="992.80,3001.60 0.00,3001.60"/>
    </edge>
    <edge id="l21" from="22" to="21" priority="1">
        <lane id="l21_0" index="0" speed="15.00" length="985.60" shape="1992.80,3001.60 1007.20,3001.60"/>
    </edge>
    <edge id="l22" from="23" to="22" priority="1">
        <lane id="l22_0" index="0" speed="15.00" length="985.60" shape="2992.80,3001.60 2007.20,3001.60"/>
    </edge>
    <edge id="l23" from="24" to="23" priority="1">
        <lane id="l23_0" index="0" speed="15.00" length="985.60" shape="3992.80,3001.60 3007.20,3001.60"/>
    </edge>
    <edge id="l24" from="r2" to="24" priority="1">
        <lane id="l24_0" index="0" speed="15.00" length="992.80" shape="5000.00,3001.60 4007.20,3001.60"/>
    </edge>
    <edge id="l30" from="31" to="l3" priority="1">
        <lane id="l30_0" index="0" speed="15.00" length="992.80" shape="992.80,2001.60 0.00,2001.60"/>
    </edge>
    <edge id="l31" from="32" to="31" priority="1">
        <lane id="l31_0" index="0" speed="15.00" length="985.60" shape="1992.80,2001.60 1007.20,2001.60"/>
    </edge>
    <edge id="l32" from="33" to="32" priority="1">
        <lane id="l32_0" index="0" speed="15.00" length="985.60" shape="2992.80,2001.60 2007.20,2001.60"/>
    </edge>
    <edge id="l33" from="34" to="33" priority="1">
        <lane id="l33_0" index="0" speed="15.00" length="985.60" shape="3992.80,2001.60 3007.20,2001.60"/>
    </edge>
    <edge id="l34" from="r3" to="34" priority="1">
        <lane id="l34_0" index="0" speed="15.00" length="992.80" shape="5000.00,2001.60 4007.20,2001.60"/>
    </edge>
    <edge id="l40" from="41" to="l4" priority="1">
        <lane id="l40_0" index="0" speed="15.00" length="992.80" shape="992.80,1001.60 0.00,1001.60"/>
    </edge>
    <edge id="l41" from="42" to="41" priority="1">
        <lane id="l41_0" index="0" speed="15.00" length="985.60" shape="1992.80,1001.60 1007.20,1001.60"/>
    </edge>
    <edge id="l42" from="43" to="42" priority="1">
        <lane id="l42_0" index="0" speed="15.00" length="985.60" shape="2992.80,1001.60 2007.20,1001.60"/>
    </edge>
    <edge id="l43" from="44" to="43" priority="1">
        <lane id="l43_0" index="0" speed="15.00" length="985.60" shape="3992.80,1001.60 3007.20,1001.60"/>
    </edge>
    <edge id="l44" from="r4" to="44" priority="1">
        <lane id="l44_0" index="0" speed="15.00" length="992.80" shape="5000.00,1001.60 4007.20,1001.60"/>
    </edge>
    <edge id="r11" from="l1" to="11" priority="1">
        <lane id="r11_0" index="0" speed="15.00" length="992.80" shape="0.00,3998.40 992.80,3998.40"/>
    </edge>
    <edge id="r12" from="11" to="12" priority="1">
        <lane id="r12_0" index="0" speed="15.00" length="985.60" shape="1007.20,3998.40 1992.80,3998.40"/>
    </edge>
    <edge id="r13" from="12" to="13" priority="1">
        <lane id="r13_0" index="0" speed="15.00" length="985.60" shape="2007.20,3998.40 2992.80,3998.40"/>
    </edge>
    <edge id="r14" from="13" to="14" priority="1">
        <lane id="r14_0" index="0" speed="15.00" length="985.60" shape="3007.20,3998.40 3992.80,3998.40"/>
    </edge>
    <edge id="r15" from="14" to="r1" priority="1">
        <lane id="r15_0" index="0" speed="15.00" length="992.80" shape="4007.20,3998.40 5000.00,3998.40"/>
    </edge>
    <edge id="r21" from="l2" to="21" priority="1">
        <lane id="r21_0" index="0" speed="15.00" length="992.80" shape="0.00,2998.40 992.80,2998.40"/>
    </edge>
    <edge id="r22" from="21" to="22" priority="1">
        <lane id="r22_0" index="0" speed="15.00" length="985.60" shape="1007.20,2998.40 1992.80,2998.40"/>
    </edge>
    <edge id="r23" from="22" to="23" priority="1">
        <lane id="r23_0" index="0" speed="15.00" length="985.60" shape="2007.20,2998.40 2992.80,2998.40"/>
    </edge>
    <edge id="r24" from="23" to="24" priority="1">
        <lane id="r24_0" index="0" speed="15.00" length="985.60" shape="3007.20,2998.40 3992.80,2998.40"/>
    </edge>
    <edge id="r25" from="24" to="r2" priority="1">
        <lane id="r25_0" index="0" speed="15.00" length="992.80" shape="4007.20,2998.40 5000.00,2998.40"/>
    </edge>
    <edge id="r31" from="l3" to="31" priority="1">
        <lane id="r31_0" index="0" speed="15.00" length="992.80" shape="0.00,1998.40 992.80,1998.40"/>
    </edge>
    <edge id="r32" from="31" to="32" priority="1">
        <lane id="r32_0" index="0" speed="15.00" length="985.60" shape="1007.20,1998.40 1992.80,1998.40"/>
    </edge>
    <edge id="r33" from="32" to="33" priority="1">
        <lane id="r33_0" index="0" speed="15.00" length="985.60" shape="2007.20,1998.40 2992.80,1998.40"/>
    </edge>
    <edge id="r34" from="33" to="34" priority="1">
        <lane id="r34_0" index="0" speed="15.00" length="985.60" shape="3007.20,1998.40 3992.80,1998.40"/>
    </edge>
    <edge id="r35" from="34" to="r3" priority="1">
        <lane id="r35_0" index="0" speed="15.00" length="992.80" shape="4007.20,1998.40 5000.00,1998.40"/>
    </edge>
    <edge id="r41" from="l4" to="41" priority="1">
        <lane id="r41_0" index="0" speed="15.00" length="992.80" shape="0.00,998.40 992.80,998.40"/>
    </edge>
    <edge id="r42" from="41" to="42" priority="1">
        <lane id="r42_0" index="0" speed="15.00" length="985.60" shape="1007.20,998.40 1992.80,998.40"/>
    </edge>
    <edge id="r43" from="42" to="43" priority="1">
        <lane id="r43_0" index="0" speed="15.00" length="985.60" shape="2007.20,998.40 2992.80,998.40"/>
    </edge>
    <edge id="r44" from="43" to="44" priority="1">
        <lane id="r44_0" index="0" speed="15.00" length="985.60" shape="3007.20,998.40 3992.80,998.40"/>
    </edge>
    <edge id="r45" from="44" to="r4" priority="1">
        <lane id="r45_0" index="0" speed="15.00" length="992.80" shape="4007.20,998.40 5000.00,998.40"/>
    </edge>
    <edge id="u01" from="11" to="u1" priority="1">
        <lane id="u01_0" index="0" speed="15.00" length="992.80" shape="1001.60,4007.20 1001.60,5000.00"/>
    </edge>
    <edge id="u02" from="12" to="u2" priority="1">
        <lane id="u02_0" index="0" speed="15.00" length="992.80" shape="2001.60,4007.20 2001.60,5000.00"/>
    </edge>
    <edge id="u03" from="13" to="u3" priority="1">
        <lane id="u03_0" index="0" speed="15.00" length="992.80" shape="3001.60,4007.20 3001.60,5000.00"/>
    </edge>
    <edge id="u04" from="14" to="u4" priority="1">
        <lane id="u04_0" index="0" speed="15.00" length="992.80" shape="4001.60,4007.20 4001.60,5000.00"/>
    </edge>
    <edge id="u11" from="21" to="11" priority="1">
        <lane id="u11_0" index="0" speed="15.00" length="985.60" shape="1001.60,3007.20 1001.60,3992.80"/>
    </edge>
    <edge id="u12" from="22" to="12" priority="1">
        <lane id="u12_0" index="0" speed="15.00" length="985.60" shape="2001.60,3007.20 2001.60,3992.80"/>
    </edge>
    <edge id="u13" from="23" to="13" priority="1">
        <lane id="u13_0" index="0" speed="15.00" length="985.60" shape="3001.60,3007.20 3001.60,3992.80"/>
    </edge>
    <edge id="u14" from="24" to="14" priority="1">
        <lane id="u14_0" index="0" speed="15.00" length="985.60" shape="4001.60,3007.20 4001.60,3992.80"/>
    </edge>
    <edge id="u21" from="31" to="21" priority="1">
        <lane id="u21_0" index="0" speed="15.00" length="985.60" shape="1001.60,2007.20 1001.60,2992.80"/>
    </edge>
    <edge id="u22" from="32" to="22" priority="1">
        <lane id="u22_0" index="0" speed="15.00" length="985.60" shape="2001.60,2007.20 2001.60,2992.80"/>
    </edge>
    <edge id="u23" from="33" to="23" priority="1">
        <lane id="u23_0" index="0" speed="15.00" length="985.60" shape="3001.60,2007.20 3001.60,2992.80"/>
    </edge>
    <edge id="u24" from="34" to="24" priority="1">
        <lane id="u24_0" index="0" speed="15.00" length="985.60" shape="4001.60,2007.20 4001.60,2992.80"/>
    </edge>
    <edge id="u31" from="41" to="31" priority="1">
        <lane id="u31_0" index="0" speed="15.00" length="985.60" shape="1001.60,1007.20 1001.60,1992.80"/>
    </edge>
    <edge id="u32" from="42" to="32" priority="1">
        <lane id="u32_0" index="0" speed="15.00" length="985.60" shape="2001.60,1007.20 2001.60,1992.80"/>
    </edge>
    <edge id="u33" from="43" to="33" priority="1">
        <lane id="u33_0" index="0" speed="15.00" length="985.60" shape="3001.60,1007.20 3001.60,1992.80"/>
    </edge>
    <edge id="u34" from="44" to="34" priority="1">
        <lane id="u34_0" index="0" speed="15.00" length="985.60" shape="4001.60,1007.20 4001.60,1992.80"/>
    </edge>
    <edge id="u41" from="d1" to="41" priority="1">
        <lane id="u41_0" index="0" speed="15.00" length="992.80" shape="1001.60,0.00 1001.60,992.80"/>
    </edge>
    <edge id="u42" from="d2" to="42" priority="1">
        <lane id="u42_0" index="0" speed="15.00" length="992.80" shape="2001.60,0.00 2001.60,992.80"/>
    </edge>
    <edge id="u43" from="d3" to="43" priority="1">
        <lane id="u43_0" index="0" speed="15.00" length="992.80" shape="3001.60,0.00 3001.60,992.80"/>
    </edge>
    <edge id="u44" from="d4" to="44" priority="1">
        <lane id="u44_0" index="0" speed="15.00" length="992.80" shape="4001.60,0.00 4001.60,992.80"/>
    </edge>

    <tlLogic id="11" type="static" programID="0" offset="0">
        <phase duration="100" state="GrGr"/>
        <phase duration="3"  state="yryr"/>
        <phase duration="100" state="rGrG"/>
        <phase duration="3"  state="ryry"/>
    </tlLogic>
    <tlLogic id="12" type="static" programID="0" offset="0">
        <phase duration="100" state="GrGr"/>
        <phase duration="3"  state="yryr"/>
        <phase duration="100" state="rGrG"/>
        <phase duration="3"  state="ryry"/>
    </tlLogic>
    <tlLogic id="13" type="static" programID="0" offset="0">
        <phase duration="100" state="GrGr"/>
        <phase duration="3"  state="yryr"/>
        <phase duration="100" state="rGrG"/>
        <phase duration="3"  state="ryry"/>
    </tlLogic>
    <tlLogic id="14" type="static" programID="0" offset="0">
        <phase duration="100" state="GrGr"/>
        <phase duration="3"  state="yryr"/>
        <phase duration="100" state="rGrG"/>
        <phase duration="3"  state="ryry"/>
    </tlLogic>
    <tlLogic id="21" type="static" programID="0" offset="0">
        <phase duration="100" state="GrGr"/>
        <phase duration="3"  state="yryr"/>
        <phase duration="100" state="rGrG"/>
        <phase duration="3"  state="ryry"/>
    </tlLogic>
    <tlLogic id="22" type="static" programID="0" offset="0">
        <phase duration="100" state="GrGr"/>
        <phase duration="3"  state="yryr"/>
        <phase duration="100" state="rGrG"/>
        <phase duration="3"  state="ryry"/>
    </tlLogic>
    <tlLogic id="23" type="static" programID="0" offset="0">
        <phase duration="100" state="GrGr"/>
        <phase duration="3"  state="yryr"/>
        <phase duration="100" state="rGrG"/>
        <phase duration="3"  state="ryry"/>
    </tlLogic>
    <tlLogic id="24" type="static" programID="0" offset="0">
        <phase duration="100" state="GrGr"/>
        <phase duration="3"  state="yryr"/>