<?xml version="1.0" encoding="UTF-8"?>
<edges xmlns:xsi="http://www.w3.org/2001/XMLSchema-instance" xsi:noNamespaceSchemaLocation="http://sumo.dlr.de/xsd/edges_file.xsd">


   <edge id="r11" from="l1" to="11" priority="1" numLanes="1" speed="15" />
   <edge id="r12" from="11" to="12" priority="1" numLanes="1" speed="15" />
   <edge id="r13" from="12" to="13" priority="1" numLanes="1" speed="15" />
   <edge id="r14" from="13" to="14" priority="1" numLanes="1" speed="15" />
   <edge id="r15" from="14" to="r1" priority="1" numLanes="1" speed="15" />


   <edge id="r21" from="l2" to="21" priority="1" numLanes="1" speed="15" />
   <edge id="r22" from="21" to="22" priority="1" numLanes="1" speed="15" />
   <edge id="r23" from="22" to="23" priority="1" numLanes="1" speed="15" />
   <edge id="r24" from="23" to="24" priority="1" numLanes="1" speed="15" />
   <edge id="r25" from="24" to="r2" priority="1" numLanes="1" speed="15" />


   <edge id="r31" from="l3" to="31" priority="1" numLanes="1" speed="15" />
   <edge id="r32" from="31" to="32" priority="1" numLanes="1" speed="15" />
   <edge id="r33" from="32" to="33" priority="1" numLanes="1" speed="15" />
   <edge id="r34" from="33" to="34" priority="1" numLanes="1" speed="15" />
   <edge id="r35" from="34" to="r3" priority="1" numLanes="1" speed="15" />


   <edge id="r41" from="l4" to="41" priority="1" numLanes="1" speed="15" />
   <edge id="r42" from="41" to="42" priority="1" numLanes="1" speed="15" />
   <edge id="r43" from="42" to="43" priority="1" numLanes="1" speed="15" />
   <edge id="r44" from="43" to="44" priority="1" numLanes="1" speed="15" />
   <edge id="r45" from="44" to="r4" priority="1" numLanes="1" speed="15" />


   <edge id="l10" to="l1" from="11" priority="1" numLanes="1" speed="15" />
   <edge id="l11" to="11" from="12" priority="1" numLanes="1" speed="15" />
   <edge id="l12" to="12" from="13" priority="1" numLanes="1" speed="15" />
   <edge id="l13" to="13" from="14" priority="1" numLanes="1" speed="15" />
   <edge id="l14" to="14" from="r1" priority="1" numLanes="1" speed="15" />


   <edge id="l20" to="l2" from="21" priority="1" numLanes="1" speed="15" />
   <edge id="l21" to="21" from="22" priority="1" numLanes="1" speed="15" />
   <edge id="l22" to="22" from="23" priority="1" numLanes="1" speed="15" />
   <edge id="l23" to="23" from="24" priority="1" numLanes="1" speed="15" />
   <edge id="l24" to="24" from="r2" priority="1" numLanes="1" speed="15" />


   <edge id="l30" to="l3" from="31" priority="1" numLanes="1" speed="15" />
   <edge id="l31" to="31" from="32" priority="1" numLanes="1" speed="15" />
   <edge id="l32" to="32" from="33" priority="1" numLanes="1" speed="15" />
   <edge id="l33" to="33" from="34" priority="1" numLanes="1" speed="15" />
   <edge id="l34" to="34" from="r3" priority="1" numLanes="1" speed="15" />


   <edge id="l40" to="l4" from="41" priority="1" numLanes="1" speed="15" />
   <edge id="l41" to="41" from="42" priority="1" numLanes="1" speed="15" />
   <edge id="l42" to="42" from="43" priority="1" numLanes="1" speed="15" />
   <edge id="l43" to="43" from="44" priority="1" numLanes="1" speed="15" />
   <edge id="l44" to="44" from="r4" priority="1" numLanes="1" speed="15" />


   <edge id="d11" from="u1" to="11" priority="1" numLanes="1" speed="15" />
   <edge id="d21" from="11" to="21" priority="1" numLanes="1" speed="15" />
   <edge id="d31" from="21" to="31" priority="1" numLanes="1" speed="15" />
   <edge id="d41" from="31" to="41" priority="1" numLanes="1" speed="15" />
   <edge id="d51" from="41" to="d1" priority="1" numLanes="1" speed="15" />


   <edge id="d12" from="u2" to="12" priority="1" numLanes="1" speed="15" />
   <edge id="d22" from="12" to="22" priority="1" numLanes="1" speed="15" />
   <edge id="d32" from="22" to="32" priority="1" numLanes="1" speed="15" />
   <edge id="d42" from="32" to="42" priority="1" numLanes="1" speed="15" />
   <edge id="d52" from="42" to="d2" priority="1" numLanes="1" speed="15" />


   <edge id="d13" from="u3" to="13" priority="1" numLanes="1" speed="15" />
   <edge id="d23" from="13" to="23" priority="1" numLanes="1" speed="15" />
   <edge id="d33" from="23" to="33" priority="1" numLanes="1" speed="15" />
   <edge id="d43" from="33" to="43" priority="1" numLanes="1" speed="15" />
   <edge id="d53" from="43" to="d3" priority="1" numLanes="1" speed="15" />


   <edge id="d14" from="u4" to="14" priority="1" numLanes="1" speed="15" />
   <edge id="d24" from="14" to="24" priority="1" numLanes="1" speed="15" />
   <edge id="d34" from="24" to="34" priority="1" numLanes="1" speed="15" />
   <edge id="d44" from="34" to="44" priority="1" numLanes="1" speed="15" />
   <edge id="d54" from="44" to="d4" priority="1" numLanes="1" speed="15" />


   <edge id="u01" to="u1" from="11" priority="1" numLanes="1" speed="15" />
   <edge id="u11" to="11" from="21" priority="1" numLanes="1" speed="15" />
   <edge id="u21" to="21" from="31" priority="1" numLanes="1" speed="15" />
   <edge id="u31" to="31" from="41" priority="1" numLanes="1" speed="15" />
   <edge id="u41" to="41" from="d1" priority="1" numLanes="1" speed="15" />


   <edge id="u02" to="u2" from="12" priority="1" numLanes="1" speed="15" />
   <edge id="u12" to="12" from="22" priority="1" numLanes="1" speed="15" />
   <edge id="u22" to="22" from="32" priority="1" numLanes="1" speed="15" />
   <edge id="u32" to="32" from="42" priority="1" numLanes="1" speed="15" />
   <edge id="u42" to="42" from="d2" priority="1" numLanes="1" speed="15" />


   <edge id="u03" to="u3" from="13" priority="1" numLanes="1" speed="15" />
   <edge id="u13" to="13" from="23" priority="1" numLanes="1" speed="15" />
   <edge id="u23" to="23" from="33" priority="1" numLanes="1" speed="15" />
   <edge id="u33" to="33" from="43" priority="1" numLanes="1" speed="15" />
   <edge id="u43" to="43" from="d3" priority="1" numLanes="1" speed="15" />


   <edge id="u04" to="u4" from="14" priority="1" numLanes="1" speed="15" />
   <edge id="u14" to="14" from="24" priority="1" numLanes="1" speed="15" />
   <edge id="u24" to="24" from="34" priority="1" numLanes="1" speed="15" />
   <edge id="u34" to="34" from="44" priority="1" numLanes="1" speed="15" />
   <edge id="u44" to="44" from="d4" priority="1" numLanes="1" speed="15" />


</edges>
