<?xml version="1.0" encoding="UTF-8"?>
<connections xmlns:xsi="http://www.w3.org/2001/XMLSchema-instance" xsi:noNamespaceSchemaLocation="http://sumo.dlr.de/xsd/connections_file.xsd">


   <connection from="r11" to="r12"/>
   <connection from="r12" to="r13"/>
   <connection from="r13" to="r14"/>
   <connection from="r14" to="r15"/>
   <connection from="r15" to="r16"/>
   <connection from="r16" to="r17"/>


   <connection from="r21" to="r22"/>
   <connection from="r22" to="r23"/>
   <connection from="r23" to="r24"/>
   <connection from="r24" to="r25"/>
   <connection from="r25" to="r26"/>
   <connection from="r26" to="r27"/>


   <connection from="r31" to="r32"/>
   <connection from="r32" to="r33"/>
   <connection from="r33" to="r34"/>
   <connection from="r34" to="r35"/>
   <connection from="r35" to="r36"/>
   <connection from="r36" to="r37"/>


   <connection from="r41" to="r42"/>
   <connection from="r42" to="r43"/>
   <connection from="r43" to="r44"/>
   <connection from="r44" to="r45"/>
   <connection from="r45" to="r46"/>
   <connection from="r46" to="r47"/>


   <connection from="r51" to="r52"/>
   <connection from="r52" to="r53"/>
   <connection from="r53" to="r54"/>
   <connection from="r54" to="r55"/>
   <connection from="r55" to="r56"/>
   <connection from="r56" to="r57"/>


   <connection from="r61" to="r62"/>
   <connection from="r62" to="r63"/>
   <connection from="r63" to="r64"/>
   <connection from="r64" to="r65"/>
   <connection from="r65" to="r66"/>
   <connection from="r66" to="r67"/>


   <connection to="l10" from="l11"/>
   <connection to="l11" from="l12"/>
   <connection to="l12" from="l13"/>
   <connection to="l13" from="l14"/>
   <connection to="l14" from="l15"/>
   <connection to="l15" from="l16"/>


   <connection to="l20" from="l21"/>
   <connection to="l21" from="l22"/>
   <connection to="l22" from="l23"/>
   <connection to="l23" from="l24"/>
   <connection to="l24" from="l25"/>
   <connection to="l25" from="l26"/>


   <connection to="l30" from="l31"/>
   <connection to="l31" from="l32"/>
   <connection to="l32" from="l33"/>
   <connection to="l33" from="l34"/>
   <connection to="l34" from="l35"/>
   <connection to="l35" from="l36"/>


   <connection to="l40" from="l41"/>
   <connection to="l41" from="l42"/>
   <connection to="l42" from="l43"/>
   <connection to="l43" from="l44"/>
   <connection to="l44" from="l45"/>
   <connection to="l45" from="l46"/>


   <connection to="l50" from="l51"/>
   <connection to="l51" from="l52"/>
   <connection to="l52" from="l53"/>
   <connection to="l53" from="l54"/>
   <connection to="l54" from="l55"/>
   <connection to="l55" from="l56"/>


   <connection to="l60" from="l61"/>
   <connection to="l61" from="l62"/>
   <connection to="l62" from="l63"/>
   <connection to="l63" from="l64"/>
   <connection to="l64" from="l65"/>
   <connection to="l65" from="l66"/>


   <connection from="d11" to="d21"/>
   <connection from="d21" to="d31"/>
   <connection from="d31" to="d41"/>
   <connection from="d41" to="d51"/>
   <connection from="d51" to="d61"/>
   <connection from="d61" to="d71"/>


   <connection from="d12" to="d22"/>
   <connection from="d22" to="d32"/>
   <connection from="d32" to="d42"/>
   <connection from="d42" to="d52"/>
   <connection from="d52" to="d62"/>
   <connection from="d62" to="d72"/>


   <connection from="d13" to="d23"/>
   <connection from="d23" to="d33"/>
   <connection from="d33" to="d43"/>
   <connection from="d43" to="d53"/>
   <connection from="d53" to="d63"/>
   <connection from="d63" to="d73"/>


   <connection from="d14" to="d24"/>
   <connection from="d24" to="d34"/>
   <connection from="d34" to="d44"/>
   <connection from="d44" to="d54"/>
   <connection from="d54" to="d64"/>
   <connection from="d64" to="d74"/>


   <connection from="d15" to="d25"/>
   <connection from="d25" to="d35"/>
   <connection from="d35" to="d45"/>
   <connection from="d45" to="d55"/>
   <connection from="d55" to="d65"/>
   <connection from="d65" to="d75"/>


   <connection from="d16" to="d26"/>
   <connection from="d26" to="d36"/>
   <connection from="d36" to="d46"/>
   <connection from="d46" to="d56"/>
   <connection from="d56" to="d66"/>
   <connection from="d66" to="d76"/>


   <connection to="u01" from="u11"/>
   <connection to="u11" from="u21"/>
   <connection to="u21" from="u31"/>
   <connection to="u31" from="u41"/>
   <connection to="u41" from="u51"/>
   <connection to="u51" from="u61"/>


   <connection to="u02" from="u12"/>
   <connection to="u12" from="u22"/>
   <connection to="u22" from="u32"/>
   <connection to="u32" from="u42"/>
   <connection to="u42" from="u52"/>
   <connection to="u52" from="u62"/>


   <connection to="u03" from="u13"/>
   <connection to="u13" from="u23"/>
   <connection to="u23" from="u33"/>
   <connection to="u33" from="u43"/>
   <connection to="u43" from="u53"/>
   <connection to="u53" from="u63"/>


   <connection to="u04" from="u14"/>
   <connection to="u14" from="u24"/>
   <connection to="u24" from="u34"/>
   <connection to="u34" from="u44"/>
   <connection to="u44" from="u54"/>
   <connection to="u54" from="u64"/>


   <connection to="u05" from="u15"/>
   <connection to="u15" from="u25"/>
   <connection to="u25" from="u35"/>
   <connection to="u35" from="u45"/>
   <connection to="u45" from="u55"/>
   <connection to="u55" from="u65"/>


   <connection to="u06" from="u16"/>
   <connection to="u16" from="u26"/>
   <connection to="u26" from="u36"/>
   <connection to="u36" from="u46"/>
   <connection to="u46" from="u56"/>
   <connection to="u56" from="u66"/>


</connections>
