<?xml version="1.0" encoding="UTF-8"?>

<!-- generated on 2022-06-04 22:29:18 by Eclipse SUMO netconvert Version 1.12.0
<configuration xmlns:xsi="http://www.w3.org/2001/XMLSchema-instance" xsi:noNamespaceSchemaLocation="http://sumo.dlr.de/xsd/netconvertConfiguration.xsd">

    <input>
        <node-files value="./66network/cross.nod.xml"/>
        <edge-files value="./66network/cross.edg.xml"/>
        <connection-files value="./66network/cross.con.xml"/>
    </input>

    <output>
        <output-file value="./66network/cross.net.xml"/>
    </output>

    <report>
        <aggregate-warnings value="5"/>
    </report>

</configuration>
-->

<net version="1.9" junctionCornerDetail="5" limitTurnSpeed="5.50" xmlns:xsi="http://www.w3.org/2001/XMLSchema-instance" xsi:noNamespaceSchemaLocation="http://sumo.dlr.de/xsd/net_file.xsd">

    <location netOffset="1000.00,6000.00" convBoundary="0.00,0.00,7000.00,7000.00" origBoundary="-1000.00,-6000.00,6000.00,1000.00" projParameter="!"/>

    <edge id=":11_0" function="internal">
        <lane id=":11_0_0" index="0" speed="15.00" length="14.40" shape="998.40,6007.20 998.40,5992.80"/>
    </edge>
    <edge id=":11_1" function="internal">
        <lane id=":11_1_0" index="0" speed="15.00" length="14.40" shape="1007.20,6001.60 992.80,6001.60"/>
    </edge>
    <edge id=":11_2" function="internal">
        <lane id=":11_2_0" index="0" speed="15.00" length="14.40" shape="1001.60,5992.80 1001.60,6007.20"/>
    </edge>
    <edge id=":11_3" function="internal">
        <lane id=":11_3_0" index="0" speed="15.00" length="14.40" shape="992.80,5998.40 1007.20,5998.40"/>
    </edge>
    <edge id=":12_0" function="internal">
        <lane id=":12_0_0" index="0" speed="15.00" length="14.40" shape="1998.40,6007.20 1998.40,5992.80"/>
    </edge>
    <edge id=":12_1" function="internal">
        <lane id=":12_1_0" index="0" speed="15.00" length="14.40" shape="2007.20,6001.60 1992.80,6001.60"/>
    </edge>
    <edge id=":12_2" function="internal">
        <lane id=":12_2_0" index="0" speed="15.00" length="14.40" shape="2001.60,5992.80 2001.60,6007.20"/>
    </edge>
    <edge id=":12_3" function="internal">
        <lane id=":12_3_0" index="0" speed="15.00" length="14.40" shape="1992.80,5998.40 2007.20,5998.40"/>
    </edge>
    <edge id=":13_0" function="internal">
        <lane id=":13_0_0" index="0" speed="15.00" length="14.40" shape="2998.40,6007.20 2998.40,5992.80"/>
    </edge>
    <edge id=":13_1" function="internal">
        <lane id=":13_1_0" index="0" speed="15.00" length="14.40" shape="3007.20,6001.60 2992.80,6001.60"/>
    </edge>
    <edge id=":13_2" function="internal">
        <lane id=":13_2_0" index="0" speed="15.00" length="14.40" shape="3001.60,5992.80 3001.60,6007.20"/>
    </edge>
    <edge id=":13_3" function="internal">
        <lane id=":13_3_0" index="0" speed="15.00" length="14.40" shape="2992.80,5998.40 3007.20,5998.40"/>
    </edge>
    <edge id=":14_0" function="internal">
        <lane id=":14_0_0" index="0" speed="15.00" length="14.40" shape="3998.40,6007.20 3998.40,5992.80"/>
    </edge>
    <edge id=":14_1" function="internal">
        <lane id=":14_1_0" index="0" speed="15.00" length="14.40" shape="4007.20,6001.60 3992.80,6001.60"/>
    </edge>
    <edge id=":14_2" function="internal">
        <lane id=":14_2_0" index="0" speed="15.00" length="14.40" shape="4001.60,5992.80 4001.60,6007.20"/>
    </edge>
    <edge id=":14_3" function="internal">
        <lane id=":14_3_0" index="0" speed="15.00" length="14.40" shape="3992.80,5998.40 4007.20,5998.40"/>
    </edge>
    <edge id=":15_0" function="internal">
        <lane id=":15_0_0" index="0" speed="15.00" length="14.40" shape="4998.40,6007.20 4998.40,5992.80"/>
    </edge>
    <edge id=":15_1" function="internal">
        <lane id=":15_1_0" index="0" speed="15.00" length="14.40" shape="5007.20,6001.60 4992.80,6001.60"/>
    </edge>
    <edge id=":15_2" function="internal">
        <lane id=":15_2_0" index="0" speed="15.00" length="14.40" shape="5001.60,5992.80 5001.60,6007.20"/>
    </edge>
    <edge id=":15_3" function="internal">
        <lane id=":15_3_0" index="0" speed="15.00" length="14.40" shape="4992.80,5998.40 5007.20,5998.40"/>
    </edge>
    <edge id=":16_0" function="internal">
        <lane id=":16_0_0" index="0" speed="15.00" length="14.40" shape="5998.40,6007.20 5998.40,5992.80"/>
    </edge>
    <edge id=":16_1" function="internal">
        <lane id=":16_1_0" index="0" speed="15.00" length="14.40" shape="6007.20,6001.60 5992.80,6001.60"/>
    </edge>
    <edge id=":16_2" function="internal">
        <lane id=":16_2_0" index="0" speed="15.00" length="14.40" shape="6001.60,5992.80 6001.60,6007.20"/>
    </edge>
    <edge id=":16_3" function="internal">
        <lane id=":16_3_0" index="0" speed="15.00" length="14.40" shape="5992.80,5998.40 6007.20,5998.40"/>
    </edge>
    <edge id=":21_0" function="internal">
        <lane id=":21_0_0" index="0" speed="15.00" length="14.40" shape="998.40,5007.20 998.40,4992.80"/>
    </edge>
    <edge id=":21_1" function="internal">
        <lane id=":21_1_0" index="0" speed="15.00" length="14.40" shape="1007.20,5001.60 992.80,5001.60"/>
    </edge>
    <edge id=":21_2" function="internal">
        <lane id=":21_2_0" index="0" speed="15.00" length="14.40" shape="1001.60,4992.80 1001.60,5007.20"/>
    </edge>
    <edge id=":21_3" function="internal">
        <lane id=":21_3_0" index="0" speed="15.00" length="14.40" shape="992.80,4998.40 1007.20,4998.40"/>
    </edge>
    <edge id=":22_0" function="internal">
        <lane id=":22_0_0" index="0" speed="15.00" length="14.40" shape="1998.40,5007.20 1998.40,4992.80"/>
    </edge>
    <edge id=":22_1" function="internal">
        <lane id=":22_1_0" index="0" speed="15.00" length="14.40" shape="2007.20,5001.60 1992.80,5001.60"/>
    </edge>
    <edge id=":22_2" function="internal">
        <lane id=":22_2_0" index="0" speed="15.00" length="14.40" shape="2001.60,4992.80 2001.60,5007.20"/>
    </edge>
    <edge id=":22_3" function="internal">
        <lane id=":22_3_0" index="0" speed="15.00" length="14.40" shape="1992.80,4998.40 2007.20,4998.40"/>
    </edge>
    <edge id=":23_0" function="internal">
        <lane id=":23_0_0" index="0" speed="15.00" length="14.40" shape="2998.40,5007.20 2998.40,4992.80"/>
    </edge>
    <edge id=":23_1" function="internal">
        <lane id=":23_1_0" index="0" speed="15.00" length="14.40" shape="3007.20,5001.60 2992.80,5001.60"/>
    </edge>
    <edge id=":23_2" function="internal">
        <lane id=":23_2_0" index="0" speed="15.00" length="14.40" shape="3001.60,4992.80 3001.60,5007.20"/>
    </edge>
    <edge id=":23_3" function="internal">
        <lane id=":23_3_0" index="0" speed="15.00" length="14.40" shape="2992.80,4998.40 3007.20,4998.40"/>
    </edge>
    <edge id=":24_0" function="internal">
        <lane id=":24_0_0" index="0" speed="15.00" length="14.40" shape="3998.40,5007.20 3998.40,4992.80"/>
    </edge>
    <edge id=":24_1" function="internal">
        <lane id=":24_1_0" index="0" speed="15.00" length="14.40" shape="4007.20,5001.60 3992.80,5001.60"/>
    </edge>
    <edge id=":24_2" function="internal">
        <lane id=":24_2_0" index="0" speed="15.00" length="14.40" shape="4001.60,4992.80 4001.60,5007.20"/>
    </edge>
    <edge id=":24_3" function="internal">
        <lane id=":24_3_0" index="0" speed="15.00" length="14.40" shape="3992.80,4998.40 4007.20,4998.40"/>
    </edge>
    <edge id=":25_0" function="internal">
        <lane id=":25_0_0" index="0" speed="15.00" length="14.40" shape="4998.40,5007.20 4998.40,4992.80"/>
    </edge>
    <edge id=":25_1" function="internal">
        <lane id=":25_1_0" index="0" speed="15.00" length="14.40" shape="5007.20,5001.60 4992.80,5001.60"/>
    </edge>
    <edge id=":25_2" function="internal">
        <lane id=":25_2_0" index="0" speed="15.00" length="14.40" shape="5001.60,4992.80 5001.60,5007.20"/>
    </edge>
    <edge id=":25_3" function="internal">
        <lane id=":25_3_0" index="0" speed="15.00" length="14.40" shape="4992.80,4998.40 5007.20,4998.40"/>
    </edge>
    <edge id=":26_0" function="internal">
        <lane id=":26_0_0" index="0" speed="15.00" length="14.40" shape="5998.40,5007.20 5998.40,4992.80"/>
    </edge>
    <edge id=":26_1" function="internal">
        <lane id=":26_1_0" index="0" speed="15.00" length="14.40" shape="6007.20,5001.60 5992.80,5001.60"/>
    </edge>
    <edge id=":26_2" function="internal">
        <lane id=":26_2_0" index="0" speed="15.00" length="14.40" shape="6001.60,4992.80 6001.60,5007.20"/>
    </edge>
    <edge id=":26_3" function="internal">
        <lane id=":26_3_0" index="0" speed="15.00" length="14.40" shape="5992.80,4998.40 6007.20,4998.40"/>
    </edge>
    <edge id=":31_0" function="internal">
        <lane id=":31_0_0" index="0" speed="15.00" length="14.40" shape="998.40,4007.20 998.40,3992.80"/>
    </edge>
    <edge id=":31_1" function="internal">
        <lane id=":31_1_0" index="0" speed="15.00" length="14.40" shape="1007.20,4001.60 992.80,4001.60"/>
    </edge>
    <edge id=":31_2" function="internal">
        <lane id=":31_2_0" index="0" speed="15.00" length="14.40" shape="1001.60,3992.80 1001.60,4007.20"/>
    </edge>
    <edge id=":31_3" function="internal">
        <lane id=":31_3_0" index="0" speed="15.00" length="14.40" shape="992.80,3998.40 1007.20,3998.40"/>
    </edge>
    <edge id=":32_0" function="internal">
        <lane id=":32_0_0" index="0" speed="15.00" length="14.40" shape="1998.40,4007.20 1998.40,3992.80"/>
    </edge>
    <edge id=":32_1" function="internal">
        <lane id=":32_1_0" index="0" speed="15.00" length="14.40" shape="2007.20,4001.60 1992.80,4001.60"/>
    </edge>
    <edge id=":32_2" function="internal">
        <lane id=":32_2_0" index="0" speed="15.00" length="14.40" shape="2001.60,3992.80 2001.60,4007.20"/>
    </edge>
    <edge id=":32_3" function="internal">
        <lane id=":32_3_0" index="0" speed="15.00" length="14.40" shape="1992.80,3998.40 2007.20,3998.40"/>
    </edge>
    <edge id=":33_0" function="internal">
        <lane id=":33_0_0" index="0" speed="15.00" length="14.40" shape="2998.40,4007.20 2998.40,3992.80"/>
    </edge>
    <edge id=":33_1" function="internal">
        <lane id=":33_1_0" index="0" speed="15.00" length="14.40" shape="3007.20,4001.60 2992.80,4001.60"/>
    </edge>
    <edge id=":33_2" function="internal">
        <lane id=":33_2_0" index="0" speed="15.00" length="14.40" shape="3001.60,3992.80 3001.60,4007.20"/>
    </edge>
    <edge id=":33_3" function="internal">
        <lane id=":33_3_0" index="0" speed="15.00" length="14.40" shape="2992.80,3998.40 3007.20,3998.40"/>
    </edge>
    <edge id=":34_0" function="internal">
        <lane id=":34_0_0" index="0" speed="15.00" length="14.40" shape="3998.40,4007.20 3998.40,3992.80"/>
    </edge>
    <edge id=":34_1" function="internal">
        <lane id=":34_1_0" index="0" speed="15.00" length="14.40" shape="4007.20,4001.60 3992.80,4001.60"/>
    </edge>
    <edge id=":34_2" function="internal">
        <lane id=":34_2_0" index="0" speed="15.00" length="14.40" shape="4001.60,3992.80 4001.60,4007.20"/>
    </edge>
    <edge id=":34_3" function="internal">
        <lane id=":34_3_0" index="0" speed="15.00" length="14.40" shape="3992.80,3998.40 4007.20,3998.40"/>
    </edge>
    <edge id=":35_0" function="internal">
        <lane id=":35_0_0" index="0" speed="15.00" length="14.40" shape="4998.40,4007.20 4998.40,3992.80"/>
    </edge>
    <edge id=":35_1" function="internal">
        <lane id=":35_1_0" index="0" speed="15.00" length="14.40" shape="5007.20,4001.60 4992.80,4001.60"/>
    </edge>
    <edge id=":35_2" function="internal">
        <lane id=":35_2_0" index="0" speed="15.00" length="14.40" shape="5001.60,3992.80 5001.60,4007.20"/>
    </edge>
    <edge id=":35_3" function="internal">
        <lane id=":35_3_0" index="0" speed="15.00" length="14.40" shape="4992.80,3998.40 5007.20,3998.40"/>
    </edge>
    <edge id=":36_0" function="internal">
        <lane id=":36_0_0" index="0" speed="15.00" length="14.40" shape="5998.40,4007.20 5998.40,3992.80"/>
    </edge>
    <edge id=":36_1" function="internal">
        <lane id=":36_1_0" index="0" speed="15.00" length="14.40" shape="6007.20,4001.60 5992.80,4001.60"/>
    </edge>
    <edge id=":36_2" function="internal">
        <lane id=":36_2_0" index="0" speed="15.00" length="14.40" shape="6001.60,3992.80 6001.60,4007.20"/>
    </edge>
    <edge id=":36_3" function="internal">
        <lane id=":36_3_0" index="0" speed="15.00" length="14.40" shape="5992.80,3998.40 6007.20,3998.40"/>
    </edge>
    <edge id=":41_0" function="internal">
        <lane id=":41_0_0" index="0" speed="15.00" length="14.40" shape="998.40,3007.20 998.40,2992.80"/>
    </edge>
    <edge id=":41_1" function="internal">
        <lane id=":41_1_0" index="0" speed="15.00" length="14.40" shape="1007.20,3001.60 992.80,3001.60"/>
    </edge>
    <edge id=":41_2" function="internal">
        <lane id=":41_2_0" index="0" speed="15.00" length="14.40" shape="1001.60,2992.80 1001.60,3007.20"/>
    </edge>
    <edge id=":41_3" function="internal">
        <lane id=":41_3_0" index="0" speed="15.00" length="14.40" shape="992.80,2998.40 1007.20,2998.40"/>
    </edge>
    <edge id=":42_0" function="internal">
        <lane id=":42_0_0" index="0" speed="15.00" length="14.40" shape="1998.40,3007.20 1998.40,2992.80"/>
    </edge>
    <edge id=":42_1" function="internal">
        <lane id=":42_1_0" index="0" speed="15.00" length="14.40" shape="2007.20,3001.60 1992.80,3001.60"/>
    </edge>
    <edge id=":42_2" function="internal">
        <lane id=":42_2_0" index="0" speed="15.00" length="14.40" shape="2001.60,2992.80 2001.60,3007.20"/>
    </edge>
    <edge id=":42_3" function="internal">
        <lane id=":42_3_0" index="0" speed="15.00" length="14.40" shape="1992.80,2998.40 2007.20,2998.40"/>
    </edge>
    <edge id=":43_0" function="internal">
        <lane id=":43_0_0" index="0" speed="15.00" length="14.40" shape="2998.40,3007.20 2998.40,2992.80"/>
    </edge>
    <edge id=":43_1" function="internal">
        <lane id=":43_1_0" index="0" speed="15.00" length="14.40" shape="3007.20,3001.60 2992.80,3001.60"/>
    </edge>
    <edge id=":43_2" function="internal">
        <lane id=":43_2_0" index="0" speed="15.00" length="14.40" shape="3001.60,2992.80 3001.60,3007.20"/>
    </edge>
    <edge id=":43_3" function="internal">
        <lane id=":43_3_0" index="0" speed="15.00" length="14.40" shape="2992.80,2998.40 3007.20,2998.40"/>
    </edge>
    <edge id=":44_0" function="internal">
        <lane id=":44_0_0" index="0" speed="15.00" length="14.40" shape="3998.40,3007.20 3998.40,2992.80"/>
    </edge>
    <edge id=":44_1" function="internal">
        <lane id=":44_1_0" index="0" speed="15.00" length="14.40" shape="4007.20,3001.60 3992.80,3001.60"/>
    </edge>
    <edge id=":44_2" function="internal">
        <lane id=":44_2_0" index="0" speed="15.00" length="14.40" shape="4001.60,2992.80 4001.60,3007.20"/>
    </edge>
    <edge id=":44_3" function="internal">
        <lane id=":44_3_0" index="0" speed="15.00" length="14.40" shape="3992.80,2998.40 4007.20,2998.40"/>
    </edge>
    <edge id=":45_0" function="internal">
        <lane id=":45_0_0" index="0" speed="15.00" length="14.40" shape="4998.40,3007.20 4998.40,2992.80"/>
    </edge>
    <edge id=":45_1" function="internal">
        <lane id=":45_1_0" index="0" speed="15.00" length="14.40" shape="5007.20,3001.60 4992.80,3001.60"/>
    </edge>
    <edge id=":45_2" function="internal">
        <lane id=":45_2_0" index="0" speed="15.00" length="14.40" shape="5001.60,2992.80 5001.60,3007.20"/>
    </edge>
    <edge id=":45_3" function="internal">
        <lane id=":45_3_0" index="0" speed="15.00" length="14.40" shape="4992.80,2998.40 5007.20,2998.40"/>
    </edge>
    <edge id=":46_0" function="internal">
        <lane id=":46_0_0" index="0" speed="15.00" length="14.40" shape="5998.40,3007.20 5998.40,2992.80"/>
    </edge>
    <edge id=":46_1" function="internal">
        <lane id=":46_1_0" index="0" speed="15.00" length="14.40" shape="6007.20,3001.60 5992.80,3001.60"/>
    </edge>
    <edge id=":46_2" function="internal">
        <lane id=":46_2_0" index="0" speed="15.00" length="14.40" shape="6001.60,2992.80 6001.60,3007.20"/>
    </edge>
    <edge id=":46_3" function="internal">
        <lane id=":46_3_0" index="0" speed="15.00" length="14.40" shape="5992.80,2998.40 6007.20,2998.40"/>
    </edge>
    <edge id=":51_0" function="internal">
        <lane id=":51_0_0" index="0" speed="15.00" length="14.40" shape="998.40,2007.20 998.40,1992.80"/>
    </edge>
    <edge id=":51_1" function="internal">
        <lane id=":51_1_0" index="0" speed="15.00" length="14.40" shape="1007.20,2001.60 992.80,2001.60"/>
    </edge>
    <edge id=":51_2" function="internal">
        <lane id=":51_2_0" index="0" speed="15.00" length="14.40" shape="1001.60,1992.80 1001.60,2007.20"/>
    </edge>
    <edge id=":51_3" function="internal">
        <lane id=":51_3_0" index="0" speed="15.00" length="14.40" shape="992.80,1998.40 1007.20,1998.40"/>
    </edge>
    <edge id=":52_0" function="internal">
        <lane id=":52_0_0" index="0" speed="15.00" length="14.40" shape="1998.40,2007.20 1998.40,1992.80"/>
    </edge>
    <edge id=":52_1" function="internal">
        <lane id=":52_1_0" index="0" speed="15.00" length="14.40" shape="2007.20,2001.60 1992.80,2001.60"/>
    </edge>
    <edge id=":52_2" function="internal">
        <lane id=":52_2_0" index="0" speed="15.00" length="14.40" shape="2001.60,1992.80 2001.60,2007.20"/>
    </edge>
    <edge id=":52_3" function="internal">
        <lane id=":52_3_0" index="0" speed="15.00" length="14.40" shape="1992.80,1998.40 2007.20,1998.40"/>
    </edge>
    <edge id=":53_0" function="internal">
        <lane id=":53_0_0" index="0" speed="15.00" length="14.40" shape="2998.40,2007.20 2998.40,1992.80"/>
    </edge>
    <edge id=":53_1" function="internal">
        <lane id=":53_1_0" index="0" speed="15.00" length="14.40" shape="3007.20,2001.60 2992.80,2001.60"/>
    </edge>
    <edge id=":53_2" function="internal">
        <lane id=":53_2_0" index="0" speed="15.00" length="14.40" shape="3001.60,1992.80 3001.60,2007.20"/>
    </edge>
    <edge id=":53_3" function="internal">
        <lane id=":53_3_0" index="0" speed="15.00" length="14.40" shape="2992.80,1998.40 3007.20,1998.40"/>
    </edge>
    <edge id=":54_0" function="internal">
        <lane id=":54_0_0" index="0" speed="15.00" length="14.40" shape="3998.40,2007.20 3998.40,1992.80"/>
    </edge>
    <edge id=":54_1" function="internal">
        <lane id=":54_1_0" index="0" speed="15.00" length="14.40" shape="4007.20,2001.60 3992.80,2001.60"/>
    </edge>
    <edge id=":54_2" function="internal">
        <lane id=":54_2_0" index="0" speed="15.00" length="14.40" shape="4001.60,1992.80 4001.60,2007.20"/>
    </edge>
    <edge id=":54_3" function="internal">
        <lane id=":54_3_0" index="0" speed="15.00" length="14.40" shape="3992.80,1998.40 4007.20,1998.40"/>
    </edge>
    <edge id=":55_0" function="internal">
        <lane id=":55_0_0" index="0" speed="15.00" length="14.40" shape="4998.40,2007.20 4998.40,1992.80"/>
    </edge>
    <edge id=":55_1" function="internal">
        <lane id=":55_1_0" index="0" speed="15.00" length="14.40" shape="5007.20,2001.60 4992.80,2001.60"/>
    </edge>
    <edge id=":55_2" function="internal">
        <lane id=":55_2_0" index="0" speed="15.00" length="14.40" shape="5001.60,1992.80 5001.60,2007.20"/>
    </edge>
    <edge id=":55_3" function="internal">
        <lane id=":55_3_0" index="0" speed="15.00" length="14.40" shape="4992.80,1998.40 5007.20,1998.40"/>
    </edge>
    <edge id=":56_0" function="internal">
        <lane id=":56_0_0" index="0" speed="15.00" length="14.40" shape="5998.40,2007.20 5998.40,1992.80"/>
    </edge>
    <edge id=":56_1" function="internal">
        <lane id=":56_1_0" index="0" speed="15.00" length="14.40" shape="6007.20,2001.60 5992.80,2001.60"/>
    </edge>
    <edge id=":56_2" function="internal">
        <lane id=":56_2_0" index="0" speed="15.00" length="14.40" shape="6001.60,1992.80 6001.60,2007.20"/>
    </edge>
    <edge id=":56_3" function="internal">
        <lane id=":56_3_0" index="0" speed="15.00" length="14.40" shape="5992.80,1998.40 6007.20,1998.40"/>
    </edge>
    <edge id=":61_0" function="internal">
        <lane id=":61_0_0" index="0" speed="15.00" length="14.40" shape="998.40,1007.20 998.40,992.80"/>
    </edge>
    <edge id=":61_1" function="internal">
        <lane id=":61_1_0" index="0" speed="15.00" length="14.40" shape="1007.20,1001.60 992.80,1001.60"/>
    </edge>
    <edge id=":61_2" function="internal">
        <lane id=":61_2_0" index="0" speed="15.00" length="14.40" shape="1001.60,992.80 1001.60,1007.20"/>
    </edge>
    <edge id=":61_3" function="internal">
        <lane id=":61_3_0" index="0" speed="15.00" length="14.40" shape="992.80,998.40 1007.20,998.40"/>
    </edge>
    <edge id=":62_0" function="internal">
        <lane id=":62_0_0" index="0" speed="15.00" length="14.40" shape="1998.40,1007.20 1998.40,992.80"/>
    </edge>
    <edge id=":62_1" function="internal">
        <lane id=":62_1_0" index="0" speed="15.00" length="14.40" shape="2007.20,1001.60 1992.80,1001.60"/>
    </edge>
    <edge id=":62_2" function="internal">
        <lane id=":62_2_0" index="0" speed="15.00" length="14.40" shape="2001.60,992.80 2001.60,1007.20"/>
    </edge>
    <edge id=":62_3" function="internal">
        <lane id=":62_3_0" index="0" speed="15.00" length="14.40" shape="1992.80,998.40 2007.20,998.40"/>
    </edge>
    <edge id=":63_0" function="internal">
        <lane id=":63_0_0" index="0" speed="15.00" length="14.40" shape="2998.40,1007.20 2998.40,992.80"/>
    </edge>
    <edge id=":63_1" function="internal">
        <lane id=":63_1_0" index="0" speed="15.00" length="14.40" shape="3007.20,1001.60 2992.80,1001.60"/>
    </edge>
    <edge id=":63_2" function="internal">
        <lane id=":63_2_0" index="0" speed="15.00" length="14.40" shape="3001.60,992.80 3001.60,1007.20"/>
    </edge>
    <edge id=":63_3" function="internal">
        <lane id=":63_3_0" index="0" speed="15.00" length="14.40" shape="2992.80,998.40 3007.20,998.40"/>
    </edge>
    <edge id=":64_0" function="internal">
        <lane id=":64_0_0" index="0" speed="15.00" length="14.40" shape="3998.40,1007.20 3998.40,992.80"/>
    </edge>
    <edge id=":64_1" function="internal">
        <lane id=":64_1_0" index="0" speed="15.00" length="14.40" shape="4007.20,1001.60 3992.80,1001.60"/>
    </edge>
    <edge id=":64_2" function="internal">
        <lane id=":64_2_0" index="0" speed="15.00" length="14.40" shape="4001.60,992.80 4001.60,1007.20"/>
    </edge>
    <edge id=":64_3" function="internal">
        <lane id=":64_3_0" index="0" speed="15.00" length="14.40" shape="3992.80,998.40 4007.20,998.40"/>
    </edge>
    <edge id=":65_0" function="internal">
        <lane id=":65_0_0" index="0" speed="15.00" length="14.40" shape="4998.40,1007.20 4998.40,992.80"/>
    </edge>
    <edge id=":65_1" function="internal">
        <lane id=":65_1_0" index="0" speed="15.00" length="14.40" shape="5007.20,1001.60 4992.80,1001.60"/>
    </edge>
    <edge id=":65_2" function="internal">
        <lane id=":65_2_0" index="0" speed="15.00" length="14.40" shape="5001.60,992.80 5001.60,1007.20"/>
    </edge>
    <edge id=":65_3" function="internal">
        <lane id=":65_3_0" index="0" speed="15.00" length="14.40" shape="4992.80,998.40 5007.20,998.40"/>
    </edge>
    <edge id=":66_0" function="internal">
        <lane id=":66_0_0" index="0" speed="15.00" length="14.40" shape="5998.40,1007.20 5998.40,992.80"/>
    </edge>
    <edge id=":66_1" function="internal">
        <lane id=":66_1_0" index="0" speed="15.00" length="14.40" shape="6007.20,1001.60 5992.80,1001.60"/>
    </edge>
    <edge id=":66_2" function="internal">
        <lane id=":66_2_0" index="0" speed="15.00" length="14.40" shape="6001.60,992.80 6001.60,1007.20"/>
    </edge>
    <edge id=":66_3" function="internal">
        <lane id=":66_3_0" index="0" speed="15.00" length="14.40" shape="5992.80,998.40 6007.20,998.40"/>
    </edge>
    <edge id=":d1_0" function="internal">
        <lane id=":d1_0_0" index="0" speed="3.65" length="4.67" shape="998.40,0.00 999.20,-1.20 1000.00,-1.60 1000.80,-1.20 1001.60,0.00"/>
    </edge>
    <edge id=":d2_0" function="internal">
        <lane id=":d2_0_0" index="0" speed="3.65" length="4.67" shape="1998.40,0.00 1999.20,-1.20 2000.00,-1.60 2000.80,-1.20 2001.60,0.00"/>
    </edge>
    <edge id=":d3_0" function="internal">
        <lane id=":d3_0_0" index="0" speed="3.65" length="4.67" shape="2998.40,0.00 2999.20,-1.20 3000.00,-1.60 3000.80,-1.20 3001.60,0.00"/>
    </edge>
    <edge id=":d4_0" function="internal">
        <lane id=":d4_0_0" index="0" speed="3.65" length="4.67" shape="3998.40,0.00 3999.20,-1.20 4000.00,-1.60 4000.80,-1.20 4001.60,0.00"/>
    </edge>
    <edge id=":d5_0" function="internal">
        <lane id=":d5_0_0" index="0" speed="3.65" length="4.67" shape="4998.40,0.00 4999.20,-1.20 5000.00,-1.60 5000.80,-1.20 5001.60,0.00"/>
    </edge>
    <edge id=":d6_0" function="internal">
        <lane id=":d6_0_0" index="0" speed="3.65" length="4.67" shape="5998.40,0.00 5999.20,-1.20 6000.00,-1.60 6000.80,-1.20 6001.60,0.00"/>
    </edge>
    <edge id=":l1_0" function="internal">
        <lane id=":l1_0_0" index="0" speed="3.65" length="4.67" shape="0.00,6001.60 -1.20,6000.80 -1.60,6000.00 -1.20,5999.20 0.00,5998.40"/>
    </edge>
    <edge id=":l2_0" function="internal">
        <lane id=":l2_0_0" index="0" speed="3.65" length="4.67" shape="0.00,5001.60 -1.20,5000.80 -1.60,5000.00 -1.20,4999.20 0.00,4998.40"/>
    </edge>
    <edge id=":l3_0" function="internal">
        <lane id=":l3_0_0" index="0" speed="3.65" length="4.67" shape="0.00,4001.60 -1.20,4000.80 -1.60,4000.00 -1.20,3999.20 0.00,3998.40"/>
    </edge>
    <edge id=":l4_0" function="internal">
        <lane id=":l4_0_0" index="0" speed="3.65" length="4.67" shape="0.00,3001.60 -1.20,3000.80 -1.60,3000.00 -1.20,2999.20 0.00,2998.40"/>
    </edge>
    <edge id=":l5_0" function="internal">
        <lane id=":l5_0_0" index="0" speed="3.65" length="4.67" shape="0.00,2001.60 -1.20,2000.80 -1.60,2000.00 -1.20,1999.20 0.00,1998.40"/>
    </edge>
    <edge id=":l6_0" function="internal">
        <lane id=":l6_0_0" index="0" speed="3.65" length="4.67" shape="0.00,1001.60 -1.20,1000.80 -1.60,1000.00 -1.20,999.20 0.00,998.40"/>
    </edge>
    <edge id=":r1_0" function="internal">
        <lane id=":r1_0_0" index="0" speed="3.65" length="4.67" shape="7000.00,5998.40 7001.20,5999.20 7001.60,6000.00 7001.20,6000.80 7000.00,6001.60"/>
    </edge>
    <edge id=":r2_0" function="internal">
        <lane id=":r2_0_0" index="0" speed="3.65" length="4.67" shape="7000.00,4998.40 7001.20,4999.20 7001.60,5000.00 7001.20,5000.80 7000.00,5001.60"/>
    </edge>
    <edge id=":r3_0" function="internal">
        <lane id=":r3_0_0" index="0" speed="3.65" length="4.67" shape="7000.00,3998.40 7001.20,3999.20 7001.60,4000.00 7001.20,4000.80 7000.00,4001.60"/>
    </edge>
    <edge id=":r4_0" function="internal">
        <lane id=":r4_0_0" index="0" speed="3.65" length="4.67" shape="7000.00,2998.40 7001.20,2999.20 7001.60,3000.00 7001.20,3000.80 7000.00,3001.60"/>
    </edge>
    <edge id=":r5_0" function="internal">
        <lane id=":r5_0_0" index="0" speed="3.65" length="4.67" shape="7000.00,1998.40 7001.20,1999.20 7001.60,2000.00 7001.20,2000.80 7000.00,2001.60"/>
    </edge>
    <edge id=":r6_0" function="internal">
        <lane id=":r6_0_0" index="0" speed="3.65" length="4.67" shape="7000.00,998.40 7001.20,999.20 7001.60,1000.00 7001.20,1000.80 7000.00,1001.60"/>
    </edge>
    <edge id=":u1_0" function="internal">
        <lane id=":u1_0_0" index="0" speed="3.65" length="4.67" shape="1001.60,7000.00 1000.80,7001.20 1000.00,7001.60 999.20,7001.20 998.40,7000.00"/>
    </edge>
    <edge id=":u2_0" function="internal">
        <lane id=":u2_0_0" index="0" speed="3.65" length="4.67" shape="2001.60,7000.00 2000.80,7001.20 2000.00,7001.60 1999.20,7001.20 1998.40,7000.00"/>
    </edge>
    <edge id=":u3_0" function="internal">
        <lane id=":u3_0_0" index="0" speed="3.65" length="4.67" shape="3001.60,7000.00 3000.80,7001.20 3000.00,7001.60 2999.20,7001.20 2998.40,7000.00"/>
    </edge>
    <edge id=":u4_0" function="internal">
        <lane id=":u4_0_0" index="0" speed="3.65" length="4.67" shape="4001.60,7000.00 4000.80,7001.20 4000.00,7001.60 3999.20,7001.20 3998.40,7000.00"/>
    </edge>
    <edge id=":u5_0" function="internal">
        <lane id=":u5_0_0" index="0" speed="3.65" length="4.67" shape="5001.60,7000.00 5000.80,7001.20 5000.00,7001.60 4999.20,7001.20 4998.40,7000.00"/>
    </edge>
    <edge id=":u6_0" function="internal">
        <lane id=":u6_0_0" index="0" speed="3.65" length="4.67" shape="6001.60,7000.00 6000.80,7001.20 6000.00,7001.60 5999.20,7001.20 5998.40,7000.00"/>
    </edge>

    <edge id="d11" from="u1" to="11" priority="1">
        <lane id="d11_0" index="0" speed="15.00" length="992.80" shape="998.40,7000.00 998.40,6007.20"/>
    </edge>
    <edge id="d12" from="u2" to="12" priority="1">
        <lane id="d12_0" index="0" speed="15.00" length="992.80" shape="1998.40,7000.00 1998.40,6007.20"/>
    </edge>
    <edge id="d13" from="u3" to="13" priority="1">
        <lane id="d13_0" index="0" speed="15.00" length="992.80" shape="2998.40,7000.00 2998.40,6007.20"/>
    </edge>
    <edge id="d14" from="u4" to="14" priority="1">
        <lane id="d14_0" index="0" speed="15.00" length="992.80" shape="3998.40,7000.00 3998.40,6007.20"/>
    </edge>
    <edge id="d15" from="u5" to="15" priority="1">
        <lane id="d15_0" index="0" speed="15.00" length="992.80" shape="4998.40,7000.00 4998.40,6007.20"/>
    </edge>