<?xml version="1.0" encoding="UTF-8"?>
<nodes xmlns:xsi="http://www.w3.org/2001/XMLSchema-instance" xsi:noNamespaceSchemaLocation="http://sumo.dlr.de/xsd/nodes_file.xsd">


   <node id="11" x="0.0" y="-0.0"  type="traffic_light"/>
   <node id="12" x="1000.0" y="-0.0"  type="traffic_light"/>


   <node id="21" x="0.0" y="-1000.0"  type="traffic_light"/>
   <node id="22" x="1000.0" y="-1000.0"  type="traffic_light"/>


   <node id="u1" x="0.0" y="1000.0"  type="priority"/>
   <node id="u2" x="1000.0" y="1000.0"  type="priority"/>


   <node id="d1" x="0.0" y="-2000.0"  type="priority"/>
   <node id="d2" x="1000.0" y="-2000.0"  type="priority"/>


   <node id="l1" x="-1000.0" y="-0.0"  type="priority"/>
   <node id="l2" x="-1000.0" y="-1000.0"  type="priority"/>


   <node id="r1" x="2000.0" y="-0.0"  type="priority"/>
   <node id="r2" x="2000.0" y="-1000.0"  type="priority"/>


</nodes>
