<?xml version="1.0" encoding="UTF-8"?>

<!-- generated on 2022-06-04 22:29:17 by Eclipse SUMO netconvert Version 1.12.0
<configuration xmlns:xsi="http://www.w3.org/2001/XMLSchema-instance" xsi:noNamespaceSchemaLocation="http://sumo.dlr.de/xsd/netconvertConfiguration.xsd">

    <input>
        <node-files value="./22network/cross.nod.xml"/>
        <edge-files value="./22network/cross.edg.xml"/>
        <connection-files value="./22network/cross.con.xml"/>
    </input>

    <output>
        <output-file value="./22network/cross.net.xml"/>
    </output>

    <report>
        <aggregate-warnings value="5"/>
    </report>

</configuration>
-->

<net version="1.9" junctionCornerDetail="5" limitTurnSpeed="5.50" xmlns:xsi="http://www.w3.org/2001/XMLSchema-instance" xsi:noNamespaceSchemaLocation="http://sumo.dlr.de/xsd/net_file.xsd">

    <location netOffset="1000.00,2000.00" convBoundary="0.00,0.00,3000.00,3000.00" origBoundary="-1000.00,-2000.00,2000.00,1000.00" projParameter="!"/>

    <edge id=":11_0" function="internal">
        <lane id=":11_0_0" index="0" speed="15.00" length="14.40" shape="998.40,2007.20 998.40,1992.80"/>
    </edge>
    <edge id=":11_1" function="internal">
        <lane id=":11_1_0" index="0" speed="15.00" length="14.40" shape="1007.20,2001.60 992.80,2001.60"/>
    </edge>
    <edge id=":11_2" function="internal">
        <lane id=":11_2_0" index="0" speed="15.00" length="14.40" shape="1001.60,1992.80 1001.60,2007.20"/>
    </edge>
    <edge id=":11_3" function="internal">
        <lane id=":11_3_0" index="0" speed="15.00" length="14.40" shape="992.80,1998.40 1007.20,1998.40"/>
    </edge>
    <edge id=":12_0" function="internal">
        <lane id=":12_0_0" index="0" speed="15.00" length="14.40" shape="1998.40,2007.20 1998.40,1992.80"/>
    </edge>
    <edge id=":12_1" function="internal">
        <lane id=":12_1_0" index="0" speed="15.00" length="14.40" shape="2007.20,2001.60 1992.80,2001.60"/>
    </edge>
    <edge id=":12_2" function="internal">
        <lane id=":12_2_0" index="0" speed="15.00" length="14.40" shape="2001.60,1992.80 2001.60,2007.20"/>
    </edge>
    <edge id=":12_3" function="internal">
        <lane id=":12_3_0" index="0" speed="15.00" length="14.40" shape="1992.80,1998.40 2007.20,1998.40"/>
    </edge>
    <edge id=":21_0" function="internal">
        <lane id=":21_0_0" index="0" speed="15.00" length="14.40" shape="998.40,1007.20 998.40,992.80"/>
    </edge>
    <edge id=":21_1" function="internal">
        <lane id=":21_1_0" index="0" speed="15.00" length="14.40" shape="1007.20,1001.60 992.80,1001.60"/>
    </edge>
    <edge id=":21_2" function="internal">
        <lane id=":21_2_0" index="0" speed="15.00" length="14.40" shape="1001.60,992.80 1001.60,1007.20"/>
    </edge>
    <edge id=":21_3" function="internal">
        <lane id=":21_3_0" index="0" speed="15.00" length="14.40" shape="992.80,998.40 1007.20,998.40"/>
    </edge>
    <edge id=":22_0" function="internal">
        <lane id=":22_0_0" index="0" speed="15.00" length="14.40" shape="1998.40,1007.20 1998.40,992.80"/>
    </edge>
    <edge id=":22_1" function="internal">
        <lane id=":22_1_0" index="0" speed="15.00" length="14.40" shape="2007.20,1001.60 1992.80,1001.60"/>
    </edge>
    <edge id=":22_2" function="internal">
        <lane id=":22_2_0" index="0" speed="15.00" length="14.40" shape="2001.60,992.80 2001.60,1007.20"/>
    </edge>
    <edge id=":22_3" function="internal">
        <lane id=":22_3_0" index="0" speed="15.00" length="14.40" shape="1992.80,998.40 2007.20,998.40"/>
    </edge>
    <edge id=":d1_0" function="internal">
        <lane id=":d1_0_0" index="0" speed="3.65" length="4.67" shape="998.40,0.00 999.20,-1.20 1000.00,-1.60 1000.80,-1.20 1001.60,0.00"/>
    </edge>
    <edge id=":d2_0" function="internal">
        <lane id=":d2_0_0" index="0" speed="3.65" length="4.67" shape="1998.40,0.00 1999.20,-1.20 2000.00,-1.60 2000.80,-1.20 2001.60,0.00"/>
    </edge>
    <edge id=":l1_0" function="internal">
        <lane id=":l1_0_0" index="0" speed="3.65" length="4.67" shape="0.00,2001.60 -1.20,2000.80 -1.60,2000.00 -1.20,1999.20 0.00,1998.40"/>
    </edge>
    <edge id=":l2_0" function="internal">
        <lane id=":l2_0_0" index="0" speed="3.65" length="4.67" shape="0.00,1001.60 -1.20,1000.80 -1.60,1000.00 -1.20,999.20 0.00,998.40"/>
    </edge>
    <edge id=":r1_0" function="internal">
        <lane id=":r1_0_0" index="0" speed="3.65" length="4.67" shape="3000.00,1998.40 3001.20,1999.20 3001.60,2000.00 3001.20,2000.80 3000.00,2001.60"/>
    </edge>
    <edge id=":r2_0" function="internal">
        <lane id=":r2_0_0" index="0" speed="3.65" length="4.67" shape="3000.00,998.40 3001.20,999.20 3001.60,1000.00 3001.20,1000.80 3000.00,1001.60"/>
    </edge>
    <edge id=":u1_0" function="internal">
        <lane id=":u1_0_0" index="0" speed="3.65" length="4.67" shape="1001.60,3000.00 1000.80,3001.20 1000.00,3001.60 999.20,3001.20 998.40,3000.00"/>
    </edge>
    <edge id=":u2_0" function="internal">
        <lane id=":u2_0_0" index="0" speed="3.65" length="4.67" shape="2001.60,3000.00 2000.80,3001.20 2000.00,3001.60 1999.20,3001.20 1998.40,3000.00"/>
    </edge>

    <edge id="d11" from="u1" to="11" priority="1">
        <lane id="d11_0" index="0" speed="15.00" length="992.80" shape="998.40,3000.00 998.40,2007.20"/>
    </edge>
    <edge id="d12" from="u2" to="12" priority="1">
        <lane id="d12_0" index="0" speed="15.00" length="992.80" shape="1998.40,3000.00 1998.40,2007.20"/>
    </edge>
    <edge id="d21" from="11" to="21" priority="1">
        <lane id="d21_0" index="0" speed="15.00" length="985.60" shape="998.40,1992.80 998.40,1007.20"/>
    </edge>
    <edge id="d22" from="12" to="22" priority="1">
        <lane id="d22_0" index="0" speed="15.00" length="985.60" shape="1998.40,1992.80 1998.40,1007.20"/>
    </edge>
    <edge id="d31" from="21" to="d1" priority="1">
        <lane id="d31_0" index="0" speed="15.00" length="992.80" shape="998.40,992.80 998.40,0.00"/>
    </edge>
    <edge id="d32" from="22" to="d2" priority="1">
        <lane id="d32_0" index="0" speed="15.00" length="992.80" shape="1998.40,992.80 1998.40,0.00"/>
    </edge>
    <edge id="l10" from="11" to="l1" priority="1">
        <lane id="l10_0" index="0" speed="15.00" length="992.80" shape="992.80,2001.60 0.00,2001.60"/>
    </edge>
    <edge id="l11" from="12" to="11" priority="1">
        <lane id="l11_0" index="0" speed="15.00" length="985.60" shape="1992.80,2001.60 1007.20,2001.60"/>
    </edge>
    <edge id="l12" from="r1" to="12" priority="1">
        <lane id="l12_0" index="0" speed="15.00" length="992.80" shape="3000.00,2001.60 2007.20,2001.60"/>
    </edge>
    <edge id="l20" from="21" to="l2" priority="1">
        <lane id="l20_0" index="0" speed="15.00" length="992.80" shape="992.80,1001.60 0.00,1001.60"/>
    </edge>
    <edge id="l21" from="22" to="21" priority="1">
        <lane id="l21_0" index="0" speed="15.00" length="985.60" shape="1992.80,1001.60 1007.20,1001.60"/>
    </edge>
    <edge id="l22" from="r2" to="22" priority="1">
        <lane id="l22_0" index="0" speed="15.00" length="992.80" shape="3000.00,1001.60 2007.20,1001.60"/>
    </edge>
    <edge id="r11" from="l1" to="11" priority="1">
        <lane id="r11_0" index="0" speed="15.00" length="992.80" shape="0.00,1998.40 992.80,1998.40"/>
    </edge>
    <edge id="r12" from="11" to="12" priority="1">
        <lane id="r12_0" index="0" speed="15.00" length="985.60" shape="1007.20,1998.40 1992.80,1998.40"/>
    </edge>
    <edge id="r13" from="12" to="r1" priority="1">
        <lane id="r13_0" index="0" speed="15.00" length="992.80" shape="2007.20,1998.40 3000.00,1998.40"/>
    </edge>
    <edge id="r21" from="l2" to="21" priority="1">
        <lane id="r21_0" index="0" speed="15.00" length="992.80" shape="0.00,998.40 992.80,998.40"/>
    </edge>
    <edge id="r22" from="21" to="22" priority="1">
        <lane id="r22_0" index="0" speed="15.00" length="985.60" shape="1007.20,998.40 1992.80,998.40"/>
    </edge>
    <edge id="r23" from="22" to="r2" priority="1">
        <lane id="r23_0" index="0" speed="15.00" length="992.80" shape="2007.20,998.40 3000.00,998.40"/>
    </edge>
    <edge id="u01" from="11" to="u1" priority="1">
        <lane id="u01_0" index="0" speed="15.00" length="992.80" shape="1001.60,2007.20 1001.60,3000.00"/>
    </edge>
    <edge id="u02" from="12" to="u2" priority="1">
        <lane id="u02_0" index="0" speed="15.00" length="992.80" shape="2001.60,2007.20 2001.60,3000.00"/>
    </edge>
    <edge id="u11" from="21" to="11" priority="1">
        <lane id="u11_0" index="0" speed="15.00" length="985.60" shape="1001.60,1007.20 1001.60,1992.80"/>
    </edge>
    <edge id="u12" from="22" to="12" priority="1">
        <lane id="u12_0" index="0" speed="15.00" length="985.60" shape="2001.60,1007.20 2001.60,1992.80"/>
    </edge>
    <edge id="u21" from="d1" to="21" priority="1">
        <lane id="u21_0" index="0" speed="15.00" length="992.80" shape="1001.60,0.00 1001.60,992.80"/>
    </edge>
    <edge id="u22" from="d2" to="22" priority="1">
        <lane id="u22_0" index="0" speed="15.00" length="992.80" shape="2001.60,0.00 2001.60,992.80"/>
    </edge>

    <tlLogic id="11" type="static" programID="0" offset="0">
        <phase duration="100" state="GrGr"/>
        <phase duration="3"  state="yryr"/>
        <phase duration="100" state="rGrG"/>
        <phase duration="3"  state="ryry"/>
    </tlLogic>
    <tlLogic id="12" type="static" programID="0" offset="0">
        <phase duration="100" state="GrGr"/>
        <phase duration="3"  state="yryr"/>
        <phase duration="100" state="rGrG"/>
        <phase duration="3"  state="ryry"/>
    </tlLogic>
    <tlLogic id="21" type="static" programID="0" offset="0">
        <phase duration="100" state="GrGr"/>
        <phase duration="3"  state="yryr"/>
        <phase duration="100" state="rGrG"/>
        <phase duration="3"  state="ryry"/>
    </tlLogic>
    <tlLogic id="22" type="static" programID="0" offset="0">
        <phase duration="100" state="GrGr"/>
        <phase duration="3"  state="yryr"/>
        <phase duration="100" state="rGrG"/>
        <phase duration="3"  state="ryry"/>
    </tlLogic>

    <junction id="11" type="traffic_light" x="1000.00" y="2000.00" incLanes="d11_0 l11_0 u11_0 r11_0" intLanes=":11_0_0 :11_1_0 :11_2_0 :11_3_0" shape="996.80,2007.20 1003.20,2007.20 1003.64,2004.98 1004.20,2004.20 1004.98,2003.64 1005.98,2003.31 1007.20,2003.20 1007.20,1996.80 1004.98,1996.36 1004.20,1995.80 1003.64,1995.02 1003.31,1994.02 1003.20,1992.80 996.80,1992.80 996.36,1995.02 995.80,1995.80 995.02,1996.36 994.02,1996.69 992.80,1996.80 992.80,2003.20 995.02,2003.64 995.80,2004.20 996.36,2004.98 996.69,2005.98">
        <request index="0" response="0000" foes="1010" cont="0"/>
        <request index="1" response="0101" foes="0101" cont="0"/>
        <request index="2" response="0000" foes="1010" cont="0"/>
        <request index="3" response="0101" foes="0101" cont="0"/>
    </junction>
    <junction id="12" type="traffic_light" x="2000.00" y="2000.00" incLanes="d12_0 l12_0 u12_0 r12_0" intLanes=":12_0_0 :12_1_0 :12_2_0 :12_3_0" shape="1996.80,2007.20 2003.20,2007.20 2003.64,2004.98 2004.20,2004.20 2004.98,2003.64 2005.98,2003.31 2007.20,2003.20 2007.20,1996.80 2004.98,1996.36 2004.20,1995.80 2003.64,1995.02 2003.31,1994.02 2003.20,1992.80 1996.80,1992.80 1996.36,1995.02 1995.80,1995.80 1995.02,1996.36 1994.02,1996.69 1992.80,1996.80 1992.80,2003.20 1995.02,2003.64 1995.80,2004.20 1996.36,2004.98 1996.69,2005.98">
        <request index="0" response="0000" foes="1010" cont="0"/>
        <request index="1" response="0101" foes="0101" cont="0"/>
        <request index="2" response="0000" foes="1010" cont="0"/>
        <request index="3" response="0101" foes="0101" cont="0"/>
    </junction>
    <junction id="21" type="traffic_light" x="1000.00" y="1000.00" incLanes="d21_0 l21_0 u21_0 r21_0" intLanes=":21_0_0 :21_1_0 :21_2_0 :21_3_0" shape="996.80,1007.20 1003.20,1007.20 1003.64,1004.98 1004.20,1004.20 1004.98,1003.64 1005.98,1003.31 1007.20,1003.20 1007.20,996.80 1004.98,996.36 1004.20,995.80 1003.64,995.02 1003.31,994.02 1003.20,992.80 996.80,992.80 996.36,995.02 995.80,995.80 995.02,996.36 994.02,996.69 992.80,996.80 992.80,1003.20 995.02,1003.64 995.80,1004.20 996.36,1004.98 996.69,1005.98">
        <request index="0" response="0000" foes="1010" cont="0"/>
        <request index="1" response="0101" foes="0101" cont="0"/>
        <request index="2" response="0000" foes="1010" cont="0"/>
        <request index="3" response="0101" foes="0101" cont="0"/>
    </junction>
    <junction id="22" type="traffic_light" x="2000.00" y="1000.00" incLanes="d22_0 l22_0 u22_0 r22_0" intLanes=":22_0_0 :22_1_0 :22_2_0 :22_3_0" shape="1996.80,1007.20 2003.20,1007.20 2003.64,1004.98 2004.20,1004.20 2004.98,1003.64 2005.98,1003.31 2007.20,1003.20 2007.20,996.80 2004.98,996.36 2004.20,995.80 2003.64,995.02 2003.31,994.02 2003.20,992.80 1996.80,992.80 1996.36,995.02 1995.80,995.80 1995.02,996.36 1994.02,996.69 1992.80,996.80 1992.80,1003.20 1995.02,1003.64 1995.80,1004.20 1996.36,1004.98 1996.69,1005.98">
        <request index="0" response="0000" foes="1010" cont="0"/>
        <request index="1" response="0101" foes="0101" cont="0"/>
        <request index="2" response="0000" foes="1010" cont="0"/>
        <request index="3" response="0101" foes="0101" cont="0"/>
    </junction>
    <junction id="d1" type="priority" x="1000.00" y="0.00" incLanes="d31_0" intLanes=":d1_0_0" shape="1000.00,0.00 996.80,0.00 1000.00,0.00">
        <request index="0" response="0" foes="0" cont="0"/>
    </junction>
    <junction id="d2" type="priority" x="2000.00" y="0.00" incLanes="d32_0" intLanes=":d2_0_0" shape="2000.00,0.00 1996.80,0.00 2000.00,0.00">
        <request index="0" response="0" foes="0" cont="0"/>
    </junction>
    <junction id="l1" type="priority" x="0.00" y="2000.00" incLanes="l10_0" intLanes=":l1_0_0" shape="0.00,2000.00 0.00,2003.20 0.00,2000.00">
        <request index="0" response="0" foes="0" cont="0"/>
    </junction>
    <junction id="l2" type="priority" x="0.00" y="1000.00" incLanes="l20_0" intLanes=":l2_0_0" shape="0.00,1000.00 0.00,1003.20 0.00,1000.00">
        <request index="0" response="0" foes="0" cont="0"/>
    </junction>
    <junction id="r1" type="priority" x="3000.00" y="2000.00" incLanes="r13_0" intLanes=":r1_0_0" shape="3000.00,2000.00 3000.00,1996.80 3000.00,2000.00">
        <request index="0" response="0" foes="0" cont="0"/>
    </junction>
    <junction id="r2" type="priority" x="3000.00" y="1000.00" incLanes="r23_0" intLanes=":r2_0_0" shape="3000.00,1000.00 3000.00,996.80 3000.00,1000.00">
        <request index="0" response="0" foes="0" cont="0"/>
    </junction>
    <junction id="u1" type="priority" x="1000.00" y="3000.00" incLanes="u01_0" intLanes=":u1_0_0" shape="1000.00,3000.00 1003.20,3000.00 1000.00,3000.00">
        <request index="0" response="0" foes="0" cont="0"/>
    </junction>
    <junction id="u2" type="priority" x="2000.00" y="3000.00" incLanes="u02_0" intLanes=":u2_0_0" shape="2000.00,3000.00 2003.20,3000.00 2000.00,3000.00">
        <request index="0" response="0" foes="0" cont="0"/>
    </junction>

    <connection from="d11" to="d21" fromLane="0" toLane="0" via=":11_0_0" tl="11" linkIndex="0" dir="s" state="O"/>
    <connection from="d12" to="d22" fromLane="0" toLane="0" via=":12_0_0" tl="12" linkIndex="0" dir="s" state="O"/>
    <connection from="d21" to="d31" fromLane="0" toLane="0" via=":21_0_0" tl="21" linkIndex="0" dir="s" state="O"/>
    <connection from="d22" to="d32" fromLane="0" toLane="0" via=":22_0_0" tl="22" linkIndex="0" dir="s" state="O"/>
    <connection from="d31" to="u21" fromLane="0" toLane="0" via=":d1_0_0" dir="t" state="M"/>
    <connection from="d32" to="u22" fromLane="0" toLane="0" via=":d2_0_0" dir="t" state="M"/>
    <connection from="l10" to="r11" fromLane="0" toLane="0" via=":l1_0_0" dir="t" state="M"/>
    <connection from="l11" to="l10" fromLane="0" toLane="0" via=":11_1_0" tl="11" linkIndex="1" dir="s" state="o"/>
    <connection from="l12" to="l11" fromLane="0" toLane="0" via=":12_1_0" tl="12" linkIndex="1" dir="s" state="o"/>
    <connection from="l20" to="r21" fromLane="0" toLane="0" via=":l2_0_0" dir="t" state="M"/>
    <connection from="l21" to="l20" fromLane="0" toLane="0" via=":21_1_0" tl="21" linkIndex="1" dir="s" state="o"/>
    <connection from="l22" to="l21" fromLane="0" toLane="0" via=":22_1_0" tl="22" linkIndex="1" dir="s" state="o"/>
    <connection from="r11" to="r12" fromLane="0" toLane="0" via=":11_3_0" tl="11" linkIndex="3" dir="s" state="o"/>
    <connection from="r12" to="r13" fromLane="0" toLane="0" via=":12_3_0" tl="12" linkIndex="3" dir="s" state="o"/>
    <connection from="r13" to="l12" fromLane="0" toLane="0" via=":r1_0_0" dir="t" state="M"/>
    <connection from="r21" to="r22" fromLane="0" toLane="0" via=":21_3_0" tl="21" linkIndex="3" dir="s" state="o"/>
    <connection from="r22" to="r23" fromLane="0" toLane="0" via=":22_3_0" tl="22" linkIndex="3" dir="s" state="o"/>
    <connection from="r23" to="l22" fromLane="0" toLane="0" via=":r2_0_0" dir="t" state="M"/>
    <connection from="u01" to="d11" fromLane="0" toLane="0" via=":u1_0_0" dir="t" state="M"/>
    <connection from="u02" to="d12" fromLane="0" toLane="0" via=":u2_0_0" dir="t" state="M"/>
    <connection from="u11" to="u01" fromLane="0" toLane="0" via=":11_2_0" tl="11" linkIndex="2" dir="s" state="O"/>
    <connection from="u12" to="u02" fromLane="0" toLane="0" via=":12_2_0" tl="12" linkIndex="2" dir="s" state="O"/>
    <connection from="u21" to="u11" fromLane="0" toLane="0" via=":21_2_0" tl="21" linkIndex="2" dir="s" state="O"/>
    <connection from="u22" to="u12" fromLane="0" toLane="0" via=":22_2_0" tl="22" linkIndex="2" dir="s" state="O"/>

    <connection from=":11_0" to="d21" fromLane="0" toLane="0" dir="s" state="M"/>
    <connection from=":11_1" to="l10" fromLane="0" toLane="0" dir="s" state="M"/>
    <connection from=":11_2" to="u01" fromLane="0" toLane="0" dir="s" state="M"/>
    <connection from=":11_3" to="r12" fromLane="0" toLane="0" dir="s" state="M"/>
    <connection from=":12_0" to="d22" fromLane="0" toLane="0" dir="s" state="M"/>
    <connection from=":12_1" to="l11" fromLane="0" toLane="0" dir="s" state="M"/>
    <connection from=":12_2" to="u02" fromLane="0" toLane="0" dir="s" state="M"/>
    <connection from=":12_3" to="r13" fromLane="0" toLane="0" dir="s" state="M"/>
    <connection from=":21_0" to="d31" fromLane="0" toLane="0" dir="s" state="M"/>
    <connection from=":21_1" to="l20" fromLane="0" toLane="0" dir="s" state="M"/>
    <connection from=":21_2" to="u11" fromLane="0" toLane="0" dir="s" state="M"/>
    <connection from=":21_3" to="r22" fromLane="0" toLane="0" dir="s" state="M"/>
    <connection from=":22_0" to="d32" fromLane="0" toLane="0" dir="s" state="M"/>
    <connection from=":22_1" to="l21" fromLane="0" toLane="0" dir="s" state="M"/>
    <connection from=":22_2" to="u12" fromLane="0" toLane="0" dir="s" state="M"/>
    <connection from=":22_3" to="r23" fromLane="0" toLane="0" dir="s" state="M"/>
    <connection from=":d1_0" to="u21" fromLane="0" toLane="0" dir="t" state="M"/>
    <connection from=":d2_0" to="u22" fromLane="0" toLane="0" dir="t" state="M"/>
    <connection from=":l1_0" to="r11" fromLane="0" toLane="0" dir="t" state="M"/>
    <connection from=":l2_0" to="r21" fromLane="0" toLane="0" dir="t" state="M"/>
    <connection from=":r1_0" to="l12" fromLane="0" toLane="0" dir="t" state="M"/>
    <connection from=":r2_0" to="l22" fromLane="0" toLane="0" dir="t" state="M"/>
    <connection from=":u1_0" to="d11" fromLane="0" toLane="0" dir="t" state="M"/>
    <connection from=":u2_0" to="d12" fromLane="0" toLane="0" dir="t" state="M"/>

</net>
